version 3
run General-0-20230520-15:31:45-69337
attr configname General
attr datetime 20230520-15:31:45
attr datetimef 20230520-153145
attr experiment General
attr inifile omnetpp.ini
attr iterationvars ""
attr iterationvarsd ""
attr iterationvarsf ""
attr measurement ""
attr network Fattreenew
attr processid 69337
attr repetition 0
attr replication #0
attr resultdir results
attr runnumber 0
attr seedset 0
config network Fattreenew
config sim-time-limit 0.1s
config num-rngs 3
config **.cn[*].work_gen.rng 0
config **.cn[*].work_gen.sendInitialMessage true
config **.cn[*].work_gen.data_size 1.0
config **.cn[*].work_gen.sendInterval exponential(5.0e-4s)
config **.cn[*].work_gen.read_probability 0.0

par Fattreenew.sink[0] typename "\"fattreenew.Sink\""
statistic Fattreenew.sink[0] writeThroughput:stats
field count 0
field mean -nan
field stddev -nan
field min -nan
field max -nan
field sum 0
field sqrsum 0
attr recordingmode stats
attr title "Throughput of write operation in the system"
statistic Fattreenew.sink[0] readThroughput:stats
field count 0
field mean -nan
field stddev -nan
field min -nan
field max -nan
field sum 0
field sqrsum 0
attr recordingmode stats
attr title "Throughput of read operation in the system"
statistic Fattreenew.sink[0] throughput:stats
field count 0
field mean -nan
field stddev -nan
field min -nan
field max -nan
field sum 0
field sqrsum 0
attr recordingmode stats
attr title "All throughput"
par Fattreenew.sink[1] typename "\"fattreenew.Sink\""
statistic Fattreenew.sink[1] writeThroughput:stats
field count 7012
field mean 58259.038326762
field stddev 14241.835921382
field min 99.395940978315
field max 70134.031980051
field sum 408512376.74725
field sqrsum 25221578575550
attr recordingmode stats
attr title "Throughput of write operation in the system"
statistic Fattreenew.sink[1] readThroughput:stats
field count 0
field mean -nan
field stddev -nan
field min -nan
field max -nan
field sum 0
field sqrsum 0
attr recordingmode stats
attr title "Throughput of read operation in the system"
statistic Fattreenew.sink[1] throughput:stats
field count 0
field mean -nan
field stddev -nan
field min -nan
field max -nan
field sum 0
field sqrsum 0
attr recordingmode stats
attr title "All throughput"
par Fattreenew.cn[0].cn_memory typename "\"fattreenew.Buffer\""
par Fattreenew.cn[0].cn_memory rng 0
par Fattreenew.cn[0].cn_memory flash_buffer 128MB
attr unit MB
par Fattreenew.cn[0].cn_memory read_storage_flash_bw 40960Mbps
attr unit Mbps
par Fattreenew.cn[0].cn_memory write_storage_flash_bw 20480Mbps
attr unit Mbps
par Fattreenew.cn[0].cn_memory DRAM_buffer 2048MB
attr unit MB
par Fattreenew.cn[0].cn_memory read_DRAM_buffer_bw 327680Mbps
attr unit Mbps
par Fattreenew.cn[0].cn_memory write_DRAM_buffer_bw 262144Mbps
attr unit Mbps
par Fattreenew.cn[0].cn_memory SRAM_buffer 2MB
attr unit MB
par Fattreenew.cn[0].cn_memory read_SRAM_buffer_bw 1.5e+06Mbps
attr unit Mbps
par Fattreenew.cn[0].cn_memory write_SRAM_buffer_bw 1e+06Mbps
attr unit Mbps
par Fattreenew.cn[0].cn_memory switch_buffer 16MB
attr unit MB
par Fattreenew.cn[0].cn_memory read_switch_bw 409600Mbps
attr unit Mbps
par Fattreenew.cn[0].cn_memory write_switch_bw 204800Mbps
attr unit Mbps
statistic Fattreenew.cn[0].cn_memory queueLength:stats
field count 0
field mean -nan
field stddev -nan
field min -nan
field max -nan
field sum 0
field sqrsum 0
attr recordingmode stats
attr title "Queue length"
par Fattreenew.cn[0].hca[0].hcaBuffer typename "\"fattreenew.simulations.sramBuffer\""
par Fattreenew.cn[0].hca[0].hcaBuffer rng 0
par Fattreenew.cn[0].hca[0].hcaBuffer flash_buffer 128MB
attr unit MB
par Fattreenew.cn[0].hca[0].hcaBuffer read_storage_flash_bw 40960Mbps
attr unit Mbps
par Fattreenew.cn[0].hca[0].hcaBuffer write_storage_flash_bw 20480Mbps
attr unit Mbps
par Fattreenew.cn[0].hca[0].hcaBuffer DRAM_buffer 2048MB
attr unit MB
par Fattreenew.cn[0].hca[0].hcaBuffer read_DRAM_buffer_bw 327680Mbps
attr unit Mbps
par Fattreenew.cn[0].hca[0].hcaBuffer write_DRAM_buffer_bw 262144Mbps
attr unit Mbps
par Fattreenew.cn[0].hca[0].hcaBuffer SRAM_buffer 2MB
attr unit MB
par Fattreenew.cn[0].hca[0].hcaBuffer read_SRAM_buffer_bw 1.5e+06Mbps
attr unit Mbps
par Fattreenew.cn[0].hca[0].hcaBuffer write_SRAM_buffer_bw 1e+06Mbps
attr unit Mbps
par Fattreenew.cn[0].hca[0].hcaBuffer switch_buffer 16MB
attr unit MB
par Fattreenew.cn[0].hca[0].hcaBuffer read_switch_bw 409600Mbps
attr unit Mbps
par Fattreenew.cn[0].hca[0].hcaBuffer write_switch_bw 204800Mbps
attr unit Mbps
statistic Fattreenew.cn[0].hca[0].hcaBuffer queueLength:stats
field count 0
field mean -nan
field stddev -nan
field min -nan
field max -nan
field sum 0
field sqrsum 0
attr recordingmode stats
attr title "Queue length"
par Fattreenew.cn[0].hca[0].hca_payload typename "\"fattreenew.Payload\""
par Fattreenew.cn[0].hca[0].hca_payload rng 0
par Fattreenew.cn[0].hca[0].hca_payload prob_cn 0.5
par Fattreenew.cn[0].hca[0] typename "\"fattreenew.HCA\""
par Fattreenew.cn[0].hca[1].hcaBuffer typename "\"fattreenew.simulations.sramBuffer\""
par Fattreenew.cn[0].hca[1].hcaBuffer rng 0
par Fattreenew.cn[0].hca[1].hcaBuffer flash_buffer 128MB
attr unit MB
par Fattreenew.cn[0].hca[1].hcaBuffer read_storage_flash_bw 40960Mbps
attr unit Mbps
par Fattreenew.cn[0].hca[1].hcaBuffer write_storage_flash_bw 20480Mbps
attr unit Mbps
par Fattreenew.cn[0].hca[1].hcaBuffer DRAM_buffer 2048MB
attr unit MB
par Fattreenew.cn[0].hca[1].hcaBuffer read_DRAM_buffer_bw 327680Mbps
attr unit Mbps
par Fattreenew.cn[0].hca[1].hcaBuffer write_DRAM_buffer_bw 262144Mbps
attr unit Mbps
par Fattreenew.cn[0].hca[1].hcaBuffer SRAM_buffer 2MB
attr unit MB
par Fattreenew.cn[0].hca[1].hcaBuffer read_SRAM_buffer_bw 1.5e+06Mbps
attr unit Mbps
par Fattreenew.cn[0].hca[1].hcaBuffer write_SRAM_buffer_bw 1e+06Mbps
attr unit Mbps
par Fattreenew.cn[0].hca[1].hcaBuffer switch_buffer 16MB
attr unit MB
par Fattreenew.cn[0].hca[1].hcaBuffer read_switch_bw 409600Mbps
attr unit Mbps
par Fattreenew.cn[0].hca[1].hcaBuffer write_switch_bw 204800Mbps
attr unit Mbps
statistic Fattreenew.cn[0].hca[1].hcaBuffer queueLength:stats
field count 0
field mean -nan
field stddev -nan
field min -nan
field max -nan
field sum 0
field sqrsum 0
attr recordingmode stats
attr title "Queue length"
par Fattreenew.cn[0].hca[1].hca_payload typename "\"fattreenew.Payload\""
par Fattreenew.cn[0].hca[1].hca_payload rng 0
par Fattreenew.cn[0].hca[1].hca_payload prob_cn 0.5
par Fattreenew.cn[0].hca[1] typename "\"fattreenew.HCA\""
par Fattreenew.cn[0].hca[2].hcaBuffer typename "\"fattreenew.simulations.sramBuffer\""
par Fattreenew.cn[0].hca[2].hcaBuffer rng 0
par Fattreenew.cn[0].hca[2].hcaBuffer flash_buffer 128MB
attr unit MB
par Fattreenew.cn[0].hca[2].hcaBuffer read_storage_flash_bw 40960Mbps
attr unit Mbps
par Fattreenew.cn[0].hca[2].hcaBuffer write_storage_flash_bw 20480Mbps
attr unit Mbps
par Fattreenew.cn[0].hca[2].hcaBuffer DRAM_buffer 2048MB
attr unit MB
par Fattreenew.cn[0].hca[2].hcaBuffer read_DRAM_buffer_bw 327680Mbps
attr unit Mbps
par Fattreenew.cn[0].hca[2].hcaBuffer write_DRAM_buffer_bw 262144Mbps
attr unit Mbps
par Fattreenew.cn[0].hca[2].hcaBuffer SRAM_buffer 2MB
attr unit MB
par Fattreenew.cn[0].hca[2].hcaBuffer read_SRAM_buffer_bw 1.5e+06Mbps
attr unit Mbps
par Fattreenew.cn[0].hca[2].hcaBuffer write_SRAM_buffer_bw 1e+06Mbps
attr unit Mbps
par Fattreenew.cn[0].hca[2].hcaBuffer switch_buffer 16MB
attr unit MB
par Fattreenew.cn[0].hca[2].hcaBuffer read_switch_bw 409600Mbps
attr unit Mbps
par Fattreenew.cn[0].hca[2].hcaBuffer write_switch_bw 204800Mbps
attr unit Mbps
statistic Fattreenew.cn[0].hca[2].hcaBuffer queueLength:stats
field count 0
field mean -nan
field stddev -nan
field min -nan
field max -nan
field sum 0
field sqrsum 0
attr recordingmode stats
attr title "Queue length"
par Fattreenew.cn[0].hca[2].hca_payload typename "\"fattreenew.Payload\""
par Fattreenew.cn[0].hca[2].hca_payload rng 0
par Fattreenew.cn[0].hca[2].hca_payload prob_cn 0.5
par Fattreenew.cn[0].hca[2] typename "\"fattreenew.HCA\""
par Fattreenew.cn[0].hca[3].hcaBuffer typename "\"fattreenew.simulations.sramBuffer\""
par Fattreenew.cn[0].hca[3].hcaBuffer rng 0
par Fattreenew.cn[0].hca[3].hcaBuffer flash_buffer 128MB
attr unit MB
par Fattreenew.cn[0].hca[3].hcaBuffer read_storage_flash_bw 40960Mbps
attr unit Mbps
par Fattreenew.cn[0].hca[3].hcaBuffer write_storage_flash_bw 20480Mbps
attr unit Mbps
par Fattreenew.cn[0].hca[3].hcaBuffer DRAM_buffer 2048MB
attr unit MB
par Fattreenew.cn[0].hca[3].hcaBuffer read_DRAM_buffer_bw 327680Mbps
attr unit Mbps
par Fattreenew.cn[0].hca[3].hcaBuffer write_DRAM_buffer_bw 262144Mbps
attr unit Mbps
par Fattreenew.cn[0].hca[3].hcaBuffer SRAM_buffer 2MB
attr unit MB
par Fattreenew.cn[0].hca[3].hcaBuffer read_SRAM_buffer_bw 1.5e+06Mbps
attr unit Mbps
par Fattreenew.cn[0].hca[3].hcaBuffer write_SRAM_buffer_bw 1e+06Mbps
attr unit Mbps
par Fattreenew.cn[0].hca[3].hcaBuffer switch_buffer 16MB
attr unit MB
par Fattreenew.cn[0].hca[3].hcaBuffer read_switch_bw 409600Mbps
attr unit Mbps
par Fattreenew.cn[0].hca[3].hcaBuffer write_switch_bw 204800Mbps
attr unit Mbps
statistic Fattreenew.cn[0].hca[3].hcaBuffer queueLength:stats
field count 0
field mean -nan
field stddev -nan
field min -nan
field max -nan
field sum 0
field sqrsum 0
attr recordingmode stats
attr title "Queue length"
par Fattreenew.cn[0].hca[3].hca_payload typename "\"fattreenew.Payload\""
par Fattreenew.cn[0].hca[3].hca_payload rng 0
par Fattreenew.cn[0].hca[3].hca_payload prob_cn 0.5
par Fattreenew.cn[0].hca[3] typename "\"fattreenew.HCA\""
par Fattreenew.cn[0].work_gen typename "\"fattreenew.WorkGenerator\""
par Fattreenew.cn[0].work_gen sendInitialMessage true
par Fattreenew.cn[0].work_gen rng 0
par Fattreenew.cn[0].work_gen data_size 1
par Fattreenew.cn[0].work_gen read_probability 0
par Fattreenew.cn[0].work_gen sendInterval 0.000397937s
attr unit s
par Fattreenew.cn[0].cn_memory_hca typename "\"fattreenew.Payload\""
par Fattreenew.cn[0].cn_memory_hca rng 0
par Fattreenew.cn[0].cn_memory_hca prob_cn 0.5
par Fattreenew.cn[0] typename "\"fattreenew.ComputeNode\""
par Fattreenew.cn[0] num_hca 4
par Fattreenew.cn[1].cn_memory typename "\"fattreenew.Buffer\""
par Fattreenew.cn[1].cn_memory rng 0
par Fattreenew.cn[1].cn_memory flash_buffer 128MB
attr unit MB
par Fattreenew.cn[1].cn_memory read_storage_flash_bw 40960Mbps
attr unit Mbps
par Fattreenew.cn[1].cn_memory write_storage_flash_bw 20480Mbps
attr unit Mbps
par Fattreenew.cn[1].cn_memory DRAM_buffer 2048MB
attr unit MB
par Fattreenew.cn[1].cn_memory read_DRAM_buffer_bw 327680Mbps
attr unit Mbps
par Fattreenew.cn[1].cn_memory write_DRAM_buffer_bw 262144Mbps
attr unit Mbps
par Fattreenew.cn[1].cn_memory SRAM_buffer 2MB
attr unit MB
par Fattreenew.cn[1].cn_memory read_SRAM_buffer_bw 1.5e+06Mbps
attr unit Mbps
par Fattreenew.cn[1].cn_memory write_SRAM_buffer_bw 1e+06Mbps
attr unit Mbps
par Fattreenew.cn[1].cn_memory switch_buffer 16MB
attr unit MB
par Fattreenew.cn[1].cn_memory read_switch_bw 409600Mbps
attr unit Mbps
par Fattreenew.cn[1].cn_memory write_switch_bw 204800Mbps
attr unit Mbps
statistic Fattreenew.cn[1].cn_memory queueLength:stats
field count 0
field mean -nan
field stddev -nan
field min -nan
field max -nan
field sum 0
field sqrsum 0
attr recordingmode stats
attr title "Queue length"
par Fattreenew.cn[1].hca[0].hcaBuffer typename "\"fattreenew.simulations.sramBuffer\""
par Fattreenew.cn[1].hca[0].hcaBuffer rng 0
par Fattreenew.cn[1].hca[0].hcaBuffer flash_buffer 128MB
attr unit MB
par Fattreenew.cn[1].hca[0].hcaBuffer read_storage_flash_bw 40960Mbps
attr unit Mbps
par Fattreenew.cn[1].hca[0].hcaBuffer write_storage_flash_bw 20480Mbps
attr unit Mbps
par Fattreenew.cn[1].hca[0].hcaBuffer DRAM_buffer 2048MB
attr unit MB
par Fattreenew.cn[1].hca[0].hcaBuffer read_DRAM_buffer_bw 327680Mbps
attr unit Mbps
par Fattreenew.cn[1].hca[0].hcaBuffer write_DRAM_buffer_bw 262144Mbps
attr unit Mbps
par Fattreenew.cn[1].hca[0].hcaBuffer SRAM_buffer 2MB
attr unit MB
par Fattreenew.cn[1].hca[0].hcaBuffer read_SRAM_buffer_bw 1.5e+06Mbps
attr unit Mbps
par Fattreenew.cn[1].hca[0].hcaBuffer write_SRAM_buffer_bw 1e+06Mbps
attr unit Mbps
par Fattreenew.cn[1].hca[0].hcaBuffer switch_buffer 16MB
attr unit MB
par Fattreenew.cn[1].hca[0].hcaBuffer read_switch_bw 409600Mbps
attr unit Mbps
par Fattreenew.cn[1].hca[0].hcaBuffer write_switch_bw 204800Mbps
attr unit Mbps
statistic Fattreenew.cn[1].hca[0].hcaBuffer queueLength:stats
field count 0
field mean -nan
field stddev -nan
field min -nan
field max -nan
field sum 0
field sqrsum 0
attr recordingmode stats
attr title "Queue length"
par Fattreenew.cn[1].hca[0].hca_payload typename "\"fattreenew.Payload\""
par Fattreenew.cn[1].hca[0].hca_payload rng 0
par Fattreenew.cn[1].hca[0].hca_payload prob_cn 0.5
par Fattreenew.cn[1].hca[0] typename "\"fattreenew.HCA\""
par Fattreenew.cn[1].hca[1].hcaBuffer typename "\"fattreenew.simulations.sramBuffer\""
par Fattreenew.cn[1].hca[1].hcaBuffer rng 0
par Fattreenew.cn[1].hca[1].hcaBuffer flash_buffer 128MB
attr unit MB
par Fattreenew.cn[1].hca[1].hcaBuffer read_storage_flash_bw 40960Mbps
attr unit Mbps
par Fattreenew.cn[1].hca[1].hcaBuffer write_storage_flash_bw 20480Mbps
attr unit Mbps
par Fattreenew.cn[1].hca[1].hcaBuffer DRAM_buffer 2048MB
attr unit MB
par Fattreenew.cn[1].hca[1].hcaBuffer read_DRAM_buffer_bw 327680Mbps
attr unit Mbps
par Fattreenew.cn[1].hca[1].hcaBuffer write_DRAM_buffer_bw 262144Mbps
attr unit Mbps
par Fattreenew.cn[1].hca[1].hcaBuffer SRAM_buffer 2MB
attr unit MB
par Fattreenew.cn[1].hca[1].hcaBuffer read_SRAM_buffer_bw 1.5e+06Mbps
attr unit Mbps
par Fattreenew.cn[1].hca[1].hcaBuffer write_SRAM_buffer_bw 1e+06Mbps
attr unit Mbps
par Fattreenew.cn[1].hca[1].hcaBuffer switch_buffer 16MB
attr unit MB
par Fattreenew.cn[1].hca[1].hcaBuffer read_switch_bw 409600Mbps
attr unit Mbps
par Fattreenew.cn[1].hca[1].hcaBuffer write_switch_bw 204800Mbps
attr unit Mbps
statistic Fattreenew.cn[1].hca[1].hcaBuffer queueLength:stats
field count 0
field mean -nan
field stddev -nan
field min -nan
field max -nan
field sum 0
field sqrsum 0
attr recordingmode stats
attr title "Queue length"
par Fattreenew.cn[1].hca[1].hca_payload typename "\"fattreenew.Payload\""
par Fattreenew.cn[1].hca[1].hca_payload rng 0
par Fattreenew.cn[1].hca[1].hca_payload prob_cn 0.5
par Fattreenew.cn[1].hca[1] typename "\"fattreenew.HCA\""
par Fattreenew.cn[1].hca[2].hcaBuffer typename "\"fattreenew.simulations.sramBuffer\""
par Fattreenew.cn[1].hca[2].hcaBuffer rng 0
par Fattreenew.cn[1].hca[2].hcaBuffer flash_buffer 128MB
attr unit MB
par Fattreenew.cn[1].hca[2].hcaBuffer read_storage_flash_bw 40960Mbps
attr unit Mbps
par Fattreenew.cn[1].hca[2].hcaBuffer write_storage_flash_bw 20480Mbps
attr unit Mbps
par Fattreenew.cn[1].hca[2].hcaBuffer DRAM_buffer 2048MB
attr unit MB
par Fattreenew.cn[1].hca[2].hcaBuffer read_DRAM_buffer_bw 327680Mbps
attr unit Mbps
par Fattreenew.cn[1].hca[2].hcaBuffer write_DRAM_buffer_bw 262144Mbps
attr unit Mbps
par Fattreenew.cn[1].hca[2].hcaBuffer SRAM_buffer 2MB
attr unit MB
par Fattreenew.cn[1].hca[2].hcaBuffer read_SRAM_buffer_bw 1.5e+06Mbps
attr unit Mbps
par Fattreenew.cn[1].hca[2].hcaBuffer write_SRAM_buffer_bw 1e+06Mbps
attr unit Mbps
par Fattreenew.cn[1].hca[2].hcaBuffer switch_buffer 16MB
attr unit MB
par Fattreenew.cn[1].hca[2].hcaBuffer read_switch_bw 409600Mbps
attr unit Mbps
par Fattreenew.cn[1].hca[2].hcaBuffer write_switch_bw 204800Mbps
attr unit Mbps
statistic Fattreenew.cn[1].hca[2].hcaBuffer queueLength:stats
field count 0
field mean -nan
field stddev -nan
field min -nan
field max -nan
field sum 0
field sqrsum 0
attr recordingmode stats
attr title "Queue length"
par Fattreenew.cn[1].hca[2].hca_payload typename "\"fattreenew.Payload\""
par Fattreenew.cn[1].hca[2].hca_payload rng 0
par Fattreenew.cn[1].hca[2].hca_payload prob_cn 0.5
par Fattreenew.cn[1].hca[2] typename "\"fattreenew.HCA\""
par Fattreenew.cn[1].hca[3].hcaBuffer typename "\"fattreenew.simulations.sramBuffer\""
par Fattreenew.cn[1].hca[3].hcaBuffer rng 0
par Fattreenew.cn[1].hca[3].hcaBuffer flash_buffer 128MB
attr unit MB
par Fattreenew.cn[1].hca[3].hcaBuffer read_storage_flash_bw 40960Mbps
attr unit Mbps
par Fattreenew.cn[1].hca[3].hcaBuffer write_storage_flash_bw 20480Mbps
attr unit Mbps
par Fattreenew.cn[1].hca[3].hcaBuffer DRAM_buffer 2048MB
attr unit MB
par Fattreenew.cn[1].hca[3].hcaBuffer read_DRAM_buffer_bw 327680Mbps
attr unit Mbps
par Fattreenew.cn[1].hca[3].hcaBuffer write_DRAM_buffer_bw 262144Mbps
attr unit Mbps
par Fattreenew.cn[1].hca[3].hcaBuffer SRAM_buffer 2MB
attr unit MB
par Fattreenew.cn[1].hca[3].hcaBuffer read_SRAM_buffer_bw 1.5e+06Mbps
attr unit Mbps
par Fattreenew.cn[1].hca[3].hcaBuffer write_SRAM_buffer_bw 1e+06Mbps
attr unit Mbps
par Fattreenew.cn[1].hca[3].hcaBuffer switch_buffer 16MB
attr unit MB
par Fattreenew.cn[1].hca[3].hcaBuffer read_switch_bw 409600Mbps
attr unit Mbps
par Fattreenew.cn[1].hca[3].hcaBuffer write_switch_bw 204800Mbps
attr unit Mbps
statistic Fattreenew.cn[1].hca[3].hcaBuffer queueLength:stats
field count 0
field mean -nan
field stddev -nan
field min -nan
field max -nan
field sum 0
field sqrsum 0
attr recordingmode stats
attr title "Queue length"
par Fattreenew.cn[1].hca[3].hca_payload typename "\"fattreenew.Payload\""
par Fattreenew.cn[1].hca[3].hca_payload rng 0
par Fattreenew.cn[1].hca[3].hca_payload prob_cn 0.5
par Fattreenew.cn[1].hca[3] typename "\"fattreenew.HCA\""
par Fattreenew.cn[1].work_gen typename "\"fattreenew.WorkGenerator\""
par Fattreenew.cn[1].work_gen sendInitialMessage true
par Fattreenew.cn[1].work_gen rng 0
par Fattreenew.cn[1].work_gen data_size 1
par Fattreenew.cn[1].work_gen read_probability 0
par Fattreenew.cn[1].work_gen sendInterval 0.00044928s
attr unit s
par Fattreenew.cn[1].cn_memory_hca typename "\"fattreenew.Payload\""
par Fattreenew.cn[1].cn_memory_hca rng 0
par Fattreenew.cn[1].cn_memory_hca prob_cn 0.5
par Fattreenew.cn[1] typename "\"fattreenew.ComputeNode\""
par Fattreenew.cn[1] num_hca 4
par Fattreenew.cn[2].cn_memory typename "\"fattreenew.Buffer\""
par Fattreenew.cn[2].cn_memory rng 0
par Fattreenew.cn[2].cn_memory flash_buffer 128MB
attr unit MB
par Fattreenew.cn[2].cn_memory read_storage_flash_bw 40960Mbps
attr unit Mbps
par Fattreenew.cn[2].cn_memory write_storage_flash_bw 20480Mbps
attr unit Mbps
par Fattreenew.cn[2].cn_memory DRAM_buffer 2048MB
attr unit MB
par Fattreenew.cn[2].cn_memory read_DRAM_buffer_bw 327680Mbps
attr unit Mbps
par Fattreenew.cn[2].cn_memory write_DRAM_buffer_bw 262144Mbps
attr unit Mbps
par Fattreenew.cn[2].cn_memory SRAM_buffer 2MB
attr unit MB
par Fattreenew.cn[2].cn_memory read_SRAM_buffer_bw 1.5e+06Mbps
attr unit Mbps
par Fattreenew.cn[2].cn_memory write_SRAM_buffer_bw 1e+06Mbps
attr unit Mbps
par Fattreenew.cn[2].cn_memory switch_buffer 16MB
attr unit MB
par Fattreenew.cn[2].cn_memory read_switch_bw 409600Mbps
attr unit Mbps
par Fattreenew.cn[2].cn_memory write_switch_bw 204800Mbps
attr unit Mbps
statistic Fattreenew.cn[2].cn_memory queueLength:stats
field count 0
field mean -nan
field stddev -nan
field min -nan
field max -nan
field sum 0
field sqrsum 0
attr recordingmode stats
attr title "Queue length"
par Fattreenew.cn[2].hca[0].hcaBuffer typename "\"fattreenew.simulations.sramBuffer\""
par Fattreenew.cn[2].hca[0].hcaBuffer rng 0
par Fattreenew.cn[2].hca[0].hcaBuffer flash_buffer 128MB
attr unit MB
par Fattreenew.cn[2].hca[0].hcaBuffer read_storage_flash_bw 40960Mbps
attr unit Mbps
par Fattreenew.cn[2].hca[0].hcaBuffer write_storage_flash_bw 20480Mbps
attr unit Mbps
par Fattreenew.cn[2].hca[0].hcaBuffer DRAM_buffer 2048MB
attr unit MB
par Fattreenew.cn[2].hca[0].hcaBuffer read_DRAM_buffer_bw 327680Mbps
attr unit Mbps
par Fattreenew.cn[2].hca[0].hcaBuffer write_DRAM_buffer_bw 262144Mbps
attr unit Mbps
par Fattreenew.cn[2].hca[0].hcaBuffer SRAM_buffer 2MB
attr unit MB
par Fattreenew.cn[2].hca[0].hcaBuffer read_SRAM_buffer_bw 1.5e+06Mbps
attr unit Mbps
par Fattreenew.cn[2].hca[0].hcaBuffer write_SRAM_buffer_bw 1e+06Mbps
attr unit Mbps
par Fattreenew.cn[2].hca[0].hcaBuffer switch_buffer 16MB
attr unit MB
par Fattreenew.cn[2].hca[0].hcaBuffer read_switch_bw 409600Mbps
attr unit Mbps
par Fattreenew.cn[2].hca[0].hcaBuffer write_switch_bw 204800Mbps
attr unit Mbps
statistic Fattreenew.cn[2].hca[0].hcaBuffer queueLength:stats
field count 0
field mean -nan
field stddev -nan
field min -nan
field max -nan
field sum 0
field sqrsum 0
attr recordingmode stats
attr title "Queue length"
par Fattreenew.cn[2].hca[0].hca_payload typename "\"fattreenew.Payload\""
par Fattreenew.cn[2].hca[0].hca_payload rng 0
par Fattreenew.cn[2].hca[0].hca_payload prob_cn 0.5
par Fattreenew.cn[2].hca[0] typename "\"fattreenew.HCA\""
par Fattreenew.cn[2].hca[1].hcaBuffer typename "\"fattreenew.simulations.sramBuffer\""
par Fattreenew.cn[2].hca[1].hcaBuffer rng 0
par Fattreenew.cn[2].hca[1].hcaBuffer flash_buffer 128MB
attr unit MB
par Fattreenew.cn[2].hca[1].hcaBuffer read_storage_flash_bw 40960Mbps
attr unit Mbps
par Fattreenew.cn[2].hca[1].hcaBuffer write_storage_flash_bw 20480Mbps
attr unit Mbps
par Fattreenew.cn[2].hca[1].hcaBuffer DRAM_buffer 2048MB
attr unit MB
par Fattreenew.cn[2].hca[1].hcaBuffer read_DRAM_buffer_bw 327680Mbps
attr unit Mbps
par Fattreenew.cn[2].hca[1].hcaBuffer write_DRAM_buffer_bw 262144Mbps
attr unit Mbps
par Fattreenew.cn[2].hca[1].hcaBuffer SRAM_buffer 2MB
attr unit MB
par Fattreenew.cn[2].hca[1].hcaBuffer read_SRAM_buffer_bw 1.5e+06Mbps
attr unit Mbps
par Fattreenew.cn[2].hca[1].hcaBuffer write_SRAM_buffer_bw 1e+06Mbps
attr unit Mbps
par Fattreenew.cn[2].hca[1].hcaBuffer switch_buffer 16MB
attr unit MB
par Fattreenew.cn[2].hca[1].hcaBuffer read_switch_bw 409600Mbps
attr unit Mbps
par Fattreenew.cn[2].hca[1].hcaBuffer write_switch_bw 204800Mbps
attr unit Mbps
statistic Fattreenew.cn[2].hca[1].hcaBuffer queueLength:stats
field count 0
field mean -nan
field stddev -nan
field min -nan
field max -nan
field sum 0
field sqrsum 0
attr recordingmode stats
attr title "Queue length"
par Fattreenew.cn[2].hca[1].hca_payload typename "\"fattreenew.Payload\""
par Fattreenew.cn[2].hca[1].hca_payload rng 0
par Fattreenew.cn[2].hca[1].hca_payload prob_cn 0.5
par Fattreenew.cn[2].hca[1] typename "\"fattreenew.HCA\""
par Fattreenew.cn[2].hca[2].hcaBuffer typename "\"fattreenew.simulations.sramBuffer\""
par Fattreenew.cn[2].hca[2].hcaBuffer rng 0
par Fattreenew.cn[2].hca[2].hcaBuffer flash_buffer 128MB
attr unit MB
par Fattreenew.cn[2].hca[2].hcaBuffer read_storage_flash_bw 40960Mbps
attr unit Mbps
par Fattreenew.cn[2].hca[2].hcaBuffer write_storage_flash_bw 20480Mbps
attr unit Mbps
par Fattreenew.cn[2].hca[2].hcaBuffer DRAM_buffer 2048MB
attr unit MB
par Fattreenew.cn[2].hca[2].hcaBuffer read_DRAM_buffer_bw 327680Mbps
attr unit Mbps
par Fattreenew.cn[2].hca[2].hcaBuffer write_DRAM_buffer_bw 262144Mbps
attr unit Mbps
par Fattreenew.cn[2].hca[2].hcaBuffer SRAM_buffer 2MB
attr unit MB
par Fattreenew.cn[2].hca[2].hcaBuffer read_SRAM_buffer_bw 1.5e+06Mbps
attr unit Mbps
par Fattreenew.cn[2].hca[2].hcaBuffer write_SRAM_buffer_bw 1e+06Mbps
attr unit Mbps
par Fattreenew.cn[2].hca[2].hcaBuffer switch_buffer 16MB
attr unit MB
par Fattreenew.cn[2].hca[2].hcaBuffer read_switch_bw 409600Mbps
attr unit Mbps
par Fattreenew.cn[2].hca[2].hcaBuffer write_switch_bw 204800Mbps
attr unit Mbps
statistic Fattreenew.cn[2].hca[2].hcaBuffer queueLength:stats
field count 0
field mean -nan
field stddev -nan
field min -nan
field max -nan
field sum 0
field sqrsum 0
attr recordingmode stats
attr title "Queue length"
par Fattreenew.cn[2].hca[2].hca_payload typename "\"fattreenew.Payload\""
par Fattreenew.cn[2].hca[2].hca_payload rng 0
par Fattreenew.cn[2].hca[2].hca_payload prob_cn 0.5
par Fattreenew.cn[2].hca[2] typename "\"fattreenew.HCA\""
par Fattreenew.cn[2].hca[3].hcaBuffer typename "\"fattreenew.simulations.sramBuffer\""
par Fattreenew.cn[2].hca[3].hcaBuffer rng 0
par Fattreenew.cn[2].hca[3].hcaBuffer flash_buffer 128MB
attr unit MB
par Fattreenew.cn[2].hca[3].hcaBuffer read_storage_flash_bw 40960Mbps
attr unit Mbps
par Fattreenew.cn[2].hca[3].hcaBuffer write_storage_flash_bw 20480Mbps
attr unit Mbps
par Fattreenew.cn[2].hca[3].hcaBuffer DRAM_buffer 2048MB
attr unit MB
par Fattreenew.cn[2].hca[3].hcaBuffer read_DRAM_buffer_bw 327680Mbps
attr unit Mbps
par Fattreenew.cn[2].hca[3].hcaBuffer write_DRAM_buffer_bw 262144Mbps
attr unit Mbps
par Fattreenew.cn[2].hca[3].hcaBuffer SRAM_buffer 2MB
attr unit MB
par Fattreenew.cn[2].hca[3].hcaBuffer read_SRAM_buffer_bw 1.5e+06Mbps
attr unit Mbps
par Fattreenew.cn[2].hca[3].hcaBuffer write_SRAM_buffer_bw 1e+06Mbps
attr unit Mbps
par Fattreenew.cn[2].hca[3].hcaBuffer switch_buffer 16MB
attr unit MB
par Fattreenew.cn[2].hca[3].hcaBuffer read_switch_bw 409600Mbps
attr unit Mbps
par Fattreenew.cn[2].hca[3].hcaBuffer write_switch_bw 204800Mbps
attr unit Mbps
statistic Fattreenew.cn[2].hca[3].hcaBuffer queueLength:stats
field count 0
field mean -nan
field stddev -nan
field min -nan
field max -nan
field sum 0
field sqrsum 0
attr recordingmode stats
attr title "Queue length"
par Fattreenew.cn[2].hca[3].hca_payload typename "\"fattreenew.Payload\""
par Fattreenew.cn[2].hca[3].hca_payload rng 0
par Fattreenew.cn[2].hca[3].hca_payload prob_cn 0.5
par Fattreenew.cn[2].hca[3] typename "\"fattreenew.HCA\""
par Fattreenew.cn[2].work_gen typename "\"fattreenew.WorkGenerator\""
par Fattreenew.cn[2].work_gen sendInitialMessage true
par Fattreenew.cn[2].work_gen rng 0
par Fattreenew.cn[2].work_gen data_size 1
par Fattreenew.cn[2].work_gen read_probability 0
par Fattreenew.cn[2].work_gen sendInterval 0.000627965s
attr unit s
par Fattreenew.cn[2].cn_memory_hca typename "\"fattreenew.Payload\""
par Fattreenew.cn[2].cn_memory_hca rng 0
par Fattreenew.cn[2].cn_memory_hca prob_cn 0.5
par Fattreenew.cn[2] typename "\"fattreenew.ComputeNode\""
par Fattreenew.cn[2] num_hca 4
par Fattreenew.cn[3].cn_memory typename "\"fattreenew.Buffer\""
par Fattreenew.cn[3].cn_memory rng 0
par Fattreenew.cn[3].cn_memory flash_buffer 128MB
attr unit MB
par Fattreenew.cn[3].cn_memory read_storage_flash_bw 40960Mbps
attr unit Mbps
par Fattreenew.cn[3].cn_memory write_storage_flash_bw 20480Mbps
attr unit Mbps
par Fattreenew.cn[3].cn_memory DRAM_buffer 2048MB
attr unit MB
par Fattreenew.cn[3].cn_memory read_DRAM_buffer_bw 327680Mbps
attr unit Mbps
par Fattreenew.cn[3].cn_memory write_DRAM_buffer_bw 262144Mbps
attr unit Mbps
par Fattreenew.cn[3].cn_memory SRAM_buffer 2MB
attr unit MB
par Fattreenew.cn[3].cn_memory read_SRAM_buffer_bw 1.5e+06Mbps
attr unit Mbps
par Fattreenew.cn[3].cn_memory write_SRAM_buffer_bw 1e+06Mbps
attr unit Mbps
par Fattreenew.cn[3].cn_memory switch_buffer 16MB
attr unit MB
par Fattreenew.cn[3].cn_memory read_switch_bw 409600Mbps
attr unit Mbps
par Fattreenew.cn[3].cn_memory write_switch_bw 204800Mbps
attr unit Mbps
statistic Fattreenew.cn[3].cn_memory queueLength:stats
field count 0
field mean -nan
field stddev -nan
field min -nan
field max -nan
field sum 0
field sqrsum 0
attr recordingmode stats
attr title "Queue length"
par Fattreenew.cn[3].hca[0].hcaBuffer typename "\"fattreenew.simulations.sramBuffer\""
par Fattreenew.cn[3].hca[0].hcaBuffer rng 0
par Fattreenew.cn[3].hca[0].hcaBuffer flash_buffer 128MB
attr unit MB
par Fattreenew.cn[3].hca[0].hcaBuffer read_storage_flash_bw 40960Mbps
attr unit Mbps
par Fattreenew.cn[3].hca[0].hcaBuffer write_storage_flash_bw 20480Mbps
attr unit Mbps
par Fattreenew.cn[3].hca[0].hcaBuffer DRAM_buffer 2048MB
attr unit MB
par Fattreenew.cn[3].hca[0].hcaBuffer read_DRAM_buffer_bw 327680Mbps
attr unit Mbps
par Fattreenew.cn[3].hca[0].hcaBuffer write_DRAM_buffer_bw 262144Mbps
attr unit Mbps
par Fattreenew.cn[3].hca[0].hcaBuffer SRAM_buffer 2MB
attr unit MB
par Fattreenew.cn[3].hca[0].hcaBuffer read_SRAM_buffer_bw 1.5e+06Mbps
attr unit Mbps
par Fattreenew.cn[3].hca[0].hcaBuffer write_SRAM_buffer_bw 1e+06Mbps
attr unit Mbps
par Fattreenew.cn[3].hca[0].hcaBuffer switch_buffer 16MB
attr unit MB
par Fattreenew.cn[3].hca[0].hcaBuffer read_switch_bw 409600Mbps
attr unit Mbps
par Fattreenew.cn[3].hca[0].hcaBuffer write_switch_bw 204800Mbps
attr unit Mbps
statistic Fattreenew.cn[3].hca[0].hcaBuffer queueLength:stats
field count 0
field mean -nan
field stddev -nan
field min -nan
field max -nan
field sum 0
field sqrsum 0
attr recordingmode stats
attr title "Queue length"
par Fattreenew.cn[3].hca[0].hca_payload typename "\"fattreenew.Payload\""
par Fattreenew.cn[3].hca[0].hca_payload rng 0
par Fattreenew.cn[3].hca[0].hca_payload prob_cn 0.5
par Fattreenew.cn[3].hca[0] typename "\"fattreenew.HCA\""
par Fattreenew.cn[3].hca[1].hcaBuffer typename "\"fattreenew.simulations.sramBuffer\""
par Fattreenew.cn[3].hca[1].hcaBuffer rng 0
par Fattreenew.cn[3].hca[1].hcaBuffer flash_buffer 128MB
attr unit MB
par Fattreenew.cn[3].hca[1].hcaBuffer read_storage_flash_bw 40960Mbps
attr unit Mbps
par Fattreenew.cn[3].hca[1].hcaBuffer write_storage_flash_bw 20480Mbps
attr unit Mbps
par Fattreenew.cn[3].hca[1].hcaBuffer DRAM_buffer 2048MB
attr unit MB
par Fattreenew.cn[3].hca[1].hcaBuffer read_DRAM_buffer_bw 327680Mbps
attr unit Mbps
par Fattreenew.cn[3].hca[1].hcaBuffer write_DRAM_buffer_bw 262144Mbps
attr unit Mbps
par Fattreenew.cn[3].hca[1].hcaBuffer SRAM_buffer 2MB
attr unit MB
par Fattreenew.cn[3].hca[1].hcaBuffer read_SRAM_buffer_bw 1.5e+06Mbps
attr unit Mbps
par Fattreenew.cn[3].hca[1].hcaBuffer write_SRAM_buffer_bw 1e+06Mbps
attr unit Mbps
par Fattreenew.cn[3].hca[1].hcaBuffer switch_buffer 16MB
attr unit MB
par Fattreenew.cn[3].hca[1].hcaBuffer read_switch_bw 409600Mbps
attr unit Mbps
par Fattreenew.cn[3].hca[1].hcaBuffer write_switch_bw 204800Mbps
attr unit Mbps
statistic Fattreenew.cn[3].hca[1].hcaBuffer queueLength:stats
field count 0
field mean -nan
field stddev -nan
field min -nan
field max -nan
field sum 0
field sqrsum 0
attr recordingmode stats
attr title "Queue length"
par Fattreenew.cn[3].hca[1].hca_payload typename "\"fattreenew.Payload\""
par Fattreenew.cn[3].hca[1].hca_payload rng 0
par Fattreenew.cn[3].hca[1].hca_payload prob_cn 0.5
par Fattreenew.cn[3].hca[1] typename "\"fattreenew.HCA\""
par Fattreenew.cn[3].hca[2].hcaBuffer typename "\"fattreenew.simulations.sramBuffer\""
par Fattreenew.cn[3].hca[2].hcaBuffer rng 0
par Fattreenew.cn[3].hca[2].hcaBuffer flash_buffer 128MB
attr unit MB
par Fattreenew.cn[3].hca[2].hcaBuffer read_storage_flash_bw 40960Mbps
attr unit Mbps
par Fattreenew.cn[3].hca[2].hcaBuffer write_storage_flash_bw 20480Mbps
attr unit Mbps
par Fattreenew.cn[3].hca[2].hcaBuffer DRAM_buffer 2048MB
attr unit MB
par Fattreenew.cn[3].hca[2].hcaBuffer read_DRAM_buffer_bw 327680Mbps
attr unit Mbps
par Fattreenew.cn[3].hca[2].hcaBuffer write_DRAM_buffer_bw 262144Mbps
attr unit Mbps
par Fattreenew.cn[3].hca[2].hcaBuffer SRAM_buffer 2MB
attr unit MB
par Fattreenew.cn[3].hca[2].hcaBuffer read_SRAM_buffer_bw 1.5e+06Mbps
attr unit Mbps
par Fattreenew.cn[3].hca[2].hcaBuffer write_SRAM_buffer_bw 1e+06Mbps
attr unit Mbps
par Fattreenew.cn[3].hca[2].hcaBuffer switch_buffer 16MB
attr unit MB
par Fattreenew.cn[3].hca[2].hcaBuffer read_switch_bw 409600Mbps
attr unit Mbps
par Fattreenew.cn[3].hca[2].hcaBuffer write_switch_bw 204800Mbps
attr unit Mbps
statistic Fattreenew.cn[3].hca[2].hcaBuffer queueLength:stats
field count 0
field mean -nan
field stddev -nan
field min -nan
field max -nan
field sum 0
field sqrsum 0
attr recordingmode stats
attr title "Queue length"
par Fattreenew.cn[3].hca[2].hca_payload typename "\"fattreenew.Payload\""
par Fattreenew.cn[3].hca[2].hca_payload rng 0
par Fattreenew.cn[3].hca[2].hca_payload prob_cn 0.5
par Fattreenew.cn[3].hca[2] typename "\"fattreenew.HCA\""
par Fattreenew.cn[3].hca[3].hcaBuffer typename "\"fattreenew.simulations.sramBuffer\""
par Fattreenew.cn[3].hca[3].hcaBuffer rng 0
par Fattreenew.cn[3].hca[3].hcaBuffer flash_buffer 128MB
attr unit MB
par Fattreenew.cn[3].hca[3].hcaBuffer read_storage_flash_bw 40960Mbps
attr unit Mbps
par Fattreenew.cn[3].hca[3].hcaBuffer write_storage_flash_bw 20480Mbps
attr unit Mbps
par Fattreenew.cn[3].hca[3].hcaBuffer DRAM_buffer 2048MB
attr unit MB
par Fattreenew.cn[3].hca[3].hcaBuffer read_DRAM_buffer_bw 327680Mbps
attr unit Mbps
par Fattreenew.cn[3].hca[3].hcaBuffer write_DRAM_buffer_bw 262144Mbps
attr unit Mbps
par Fattreenew.cn[3].hca[3].hcaBuffer SRAM_buffer 2MB
attr unit MB
par Fattreenew.cn[3].hca[3].hcaBuffer read_SRAM_buffer_bw 1.5e+06Mbps
attr unit Mbps
par Fattreenew.cn[3].hca[3].hcaBuffer write_SRAM_buffer_bw 1e+06Mbps
attr unit Mbps
par Fattreenew.cn[3].hca[3].hcaBuffer switch_buffer 16MB
attr unit MB
par Fattreenew.cn[3].hca[3].hcaBuffer read_switch_bw 409600Mbps
attr unit Mbps
par Fattreenew.cn[3].hca[3].hcaBuffer write_switch_bw 204800Mbps
attr unit Mbps
statistic Fattreenew.cn[3].hca[3].hcaBuffer queueLength:stats
field count 0
field mean -nan
field stddev -nan
field min -nan
field max -nan
field sum 0
field sqrsum 0
attr recordingmode stats
attr title "Queue length"
par Fattreenew.cn[3].hca[3].hca_payload typename "\"fattreenew.Payload\""
par Fattreenew.cn[3].hca[3].hca_payload rng 0
par Fattreenew.cn[3].hca[3].hca_payload prob_cn 0.5
par Fattreenew.cn[3].hca[3] typename "\"fattreenew.HCA\""
par Fattreenew.cn[3].work_gen typename "\"fattreenew.WorkGenerator\""
par Fattreenew.cn[3].work_gen sendInitialMessage true
par Fattreenew.cn[3].work_gen rng 0
par Fattreenew.cn[3].work_gen data_size 1
par Fattreenew.cn[3].work_gen read_probability 0
par Fattreenew.cn[3].work_gen sendInterval 0.000929802s
attr unit s
par Fattreenew.cn[3].cn_memory_hca typename "\"fattreenew.Payload\""
par Fattreenew.cn[3].cn_memory_hca rng 0
par Fattreenew.cn[3].cn_memory_hca prob_cn 0.5
par Fattreenew.cn[3] typename "\"fattreenew.ComputeNode\""
par Fattreenew.cn[3] num_hca 4
par Fattreenew.cn[4].cn_memory typename "\"fattreenew.Buffer\""
par Fattreenew.cn[4].cn_memory rng 0
par Fattreenew.cn[4].cn_memory flash_buffer 128MB
attr unit MB
par Fattreenew.cn[4].cn_memory read_storage_flash_bw 40960Mbps
attr unit Mbps
par Fattreenew.cn[4].cn_memory write_storage_flash_bw 20480Mbps
attr unit Mbps
par Fattreenew.cn[4].cn_memory DRAM_buffer 2048MB
attr unit MB
par Fattreenew.cn[4].cn_memory read_DRAM_buffer_bw 327680Mbps
attr unit Mbps
par Fattreenew.cn[4].cn_memory write_DRAM_buffer_bw 262144Mbps
attr unit Mbps
par Fattreenew.cn[4].cn_memory SRAM_buffer 2MB
attr unit MB
par Fattreenew.cn[4].cn_memory read_SRAM_buffer_bw 1.5e+06Mbps
attr unit Mbps
par Fattreenew.cn[4].cn_memory write_SRAM_buffer_bw 1e+06Mbps
attr unit Mbps
par Fattreenew.cn[4].cn_memory switch_buffer 16MB
attr unit MB
par Fattreenew.cn[4].cn_memory read_switch_bw 409600Mbps
attr unit Mbps
par Fattreenew.cn[4].cn_memory write_switch_bw 204800Mbps
attr unit Mbps
statistic Fattreenew.cn[4].cn_memory queueLength:stats
field count 0
field mean -nan
field stddev -nan
field min -nan
field max -nan
field sum 0
field sqrsum 0
attr recordingmode stats
attr title "Queue length"
par Fattreenew.cn[4].hca[0].hcaBuffer typename "\"fattreenew.simulations.sramBuffer\""
par Fattreenew.cn[4].hca[0].hcaBuffer rng 0
par Fattreenew.cn[4].hca[0].hcaBuffer flash_buffer 128MB
attr unit MB
par Fattreenew.cn[4].hca[0].hcaBuffer read_storage_flash_bw 40960Mbps
attr unit Mbps
par Fattreenew.cn[4].hca[0].hcaBuffer write_storage_flash_bw 20480Mbps
attr unit Mbps
par Fattreenew.cn[4].hca[0].hcaBuffer DRAM_buffer 2048MB
attr unit MB
par Fattreenew.cn[4].hca[0].hcaBuffer read_DRAM_buffer_bw 327680Mbps
attr unit Mbps
par Fattreenew.cn[4].hca[0].hcaBuffer write_DRAM_buffer_bw 262144Mbps
attr unit Mbps
par Fattreenew.cn[4].hca[0].hcaBuffer SRAM_buffer 2MB
attr unit MB
par Fattreenew.cn[4].hca[0].hcaBuffer read_SRAM_buffer_bw 1.5e+06Mbps
attr unit Mbps
par Fattreenew.cn[4].hca[0].hcaBuffer write_SRAM_buffer_bw 1e+06Mbps
attr unit Mbps
par Fattreenew.cn[4].hca[0].hcaBuffer switch_buffer 16MB
attr unit MB
par Fattreenew.cn[4].hca[0].hcaBuffer read_switch_bw 409600Mbps
attr unit Mbps
par Fattreenew.cn[4].hca[0].hcaBuffer write_switch_bw 204800Mbps
attr unit Mbps
statistic Fattreenew.cn[4].hca[0].hcaBuffer queueLength:stats
field count 0
field mean -nan
field stddev -nan
field min -nan
field max -nan
field sum 0
field sqrsum 0
attr recordingmode stats
attr title "Queue length"
par Fattreenew.cn[4].hca[0].hca_payload typename "\"fattreenew.Payload\""
par Fattreenew.cn[4].hca[0].hca_payload rng 0
par Fattreenew.cn[4].hca[0].hca_payload prob_cn 0.5
par Fattreenew.cn[4].hca[0] typename "\"fattreenew.HCA\""
par Fattreenew.cn[4].hca[1].hcaBuffer typename "\"fattreenew.simulations.sramBuffer\""
par Fattreenew.cn[4].hca[1].hcaBuffer rng 0
par Fattreenew.cn[4].hca[1].hcaBuffer flash_buffer 128MB
attr unit MB
par Fattreenew.cn[4].hca[1].hcaBuffer read_storage_flash_bw 40960Mbps
attr unit Mbps
par Fattreenew.cn[4].hca[1].hcaBuffer write_storage_flash_bw 20480Mbps
attr unit Mbps
par Fattreenew.cn[4].hca[1].hcaBuffer DRAM_buffer 2048MB
attr unit MB
par Fattreenew.cn[4].hca[1].hcaBuffer read_DRAM_buffer_bw 327680Mbps
attr unit Mbps
par Fattreenew.cn[4].hca[1].hcaBuffer write_DRAM_buffer_bw 262144Mbps
attr unit Mbps
par Fattreenew.cn[4].hca[1].hcaBuffer SRAM_buffer 2MB
attr unit MB
par Fattreenew.cn[4].hca[1].hcaBuffer read_SRAM_buffer_bw 1.5e+06Mbps
attr unit Mbps
par Fattreenew.cn[4].hca[1].hcaBuffer write_SRAM_buffer_bw 1e+06Mbps
attr unit Mbps
par Fattreenew.cn[4].hca[1].hcaBuffer switch_buffer 16MB
attr unit MB
par Fattreenew.cn[4].hca[1].hcaBuffer read_switch_bw 409600Mbps
attr unit Mbps
par Fattreenew.cn[4].hca[1].hcaBuffer write_switch_bw 204800Mbps
attr unit Mbps
statistic Fattreenew.cn[4].hca[1].hcaBuffer queueLength:stats
field count 0
field mean -nan
field stddev -nan
field min -nan
field max -nan
field sum 0
field sqrsum 0
attr recordingmode stats
attr title "Queue length"
par Fattreenew.cn[4].hca[1].hca_payload typename "\"fattreenew.Payload\""
par Fattreenew.cn[4].hca[1].hca_payload rng 0
par Fattreenew.cn[4].hca[1].hca_payload prob_cn 0.5
par Fattreenew.cn[4].hca[1] typename "\"fattreenew.HCA\""
par Fattreenew.cn[4].hca[2].hcaBuffer typename "\"fattreenew.simulations.sramBuffer\""
par Fattreenew.cn[4].hca[2].hcaBuffer rng 0
par Fattreenew.cn[4].hca[2].hcaBuffer flash_buffer 128MB
attr unit MB
par Fattreenew.cn[4].hca[2].hcaBuffer read_storage_flash_bw 40960Mbps
attr unit Mbps
par Fattreenew.cn[4].hca[2].hcaBuffer write_storage_flash_bw 20480Mbps
attr unit Mbps
par Fattreenew.cn[4].hca[2].hcaBuffer DRAM_buffer 2048MB
attr unit MB
par Fattreenew.cn[4].hca[2].hcaBuffer read_DRAM_buffer_bw 327680Mbps
attr unit Mbps
par Fattreenew.cn[4].hca[2].hcaBuffer write_DRAM_buffer_bw 262144Mbps
attr unit Mbps
par Fattreenew.cn[4].hca[2].hcaBuffer SRAM_buffer 2MB
attr unit MB
par Fattreenew.cn[4].hca[2].hcaBuffer read_SRAM_buffer_bw 1.5e+06Mbps
attr unit Mbps
par Fattreenew.cn[4].hca[2].hcaBuffer write_SRAM_buffer_bw 1e+06Mbps
attr unit Mbps
par Fattreenew.cn[4].hca[2].hcaBuffer switch_buffer 16MB
attr unit MB
par Fattreenew.cn[4].hca[2].hcaBuffer read_switch_bw 409600Mbps
attr unit Mbps
par Fattreenew.cn[4].hca[2].hcaBuffer write_switch_bw 204800Mbps
attr unit Mbps
statistic Fattreenew.cn[4].hca[2].hcaBuffer queueLength:stats
field count 0
field mean -nan
field stddev -nan
field min -nan
field max -nan
field sum 0
field sqrsum 0
attr recordingmode stats
attr title "Queue length"
par Fattreenew.cn[4].hca[2].hca_payload typename "\"fattreenew.Payload\""
par Fattreenew.cn[4].hca[2].hca_payload rng 0
par Fattreenew.cn[4].hca[2].hca_payload prob_cn 0.5
par Fattreenew.cn[4].hca[2] typename "\"fattreenew.HCA\""
par Fattreenew.cn[4].hca[3].hcaBuffer typename "\"fattreenew.simulations.sramBuffer\""
par Fattreenew.cn[4].hca[3].hcaBuffer rng 0
par Fattreenew.cn[4].hca[3].hcaBuffer flash_buffer 128MB
attr unit MB
par Fattreenew.cn[4].hca[3].hcaBuffer read_storage_flash_bw 40960Mbps
attr unit Mbps
par Fattreenew.cn[4].hca[3].hcaBuffer write_storage_flash_bw 20480Mbps
attr unit Mbps
par Fattreenew.cn[4].hca[3].hcaBuffer DRAM_buffer 2048MB
attr unit MB
par Fattreenew.cn[4].hca[3].hcaBuffer read_DRAM_buffer_bw 327680Mbps
attr unit Mbps
par Fattreenew.cn[4].hca[3].hcaBuffer write_DRAM_buffer_bw 262144Mbps
attr unit Mbps
par Fattreenew.cn[4].hca[3].hcaBuffer SRAM_buffer 2MB
attr unit MB
par Fattreenew.cn[4].hca[3].hcaBuffer read_SRAM_buffer_bw 1.5e+06Mbps
attr unit Mbps
par Fattreenew.cn[4].hca[3].hcaBuffer write_SRAM_buffer_bw 1e+06Mbps
attr unit Mbps
par Fattreenew.cn[4].hca[3].hcaBuffer switch_buffer 16MB
attr unit MB
par Fattreenew.cn[4].hca[3].hcaBuffer read_switch_bw 409600Mbps
attr unit Mbps
par Fattreenew.cn[4].hca[3].hcaBuffer write_switch_bw 204800Mbps
attr unit Mbps
statistic Fattreenew.cn[4].hca[3].hcaBuffer queueLength:stats
field count 0
field mean -nan
field stddev -nan
field min -nan
field max -nan
field sum 0
field sqrsum 0
attr recordingmode stats
attr title "Queue length"
par Fattreenew.cn[4].hca[3].hca_payload typename "\"fattreenew.Payload\""
par Fattreenew.cn[4].hca[3].hca_payload rng 0
par Fattreenew.cn[4].hca[3].hca_payload prob_cn 0.5
par Fattreenew.cn[4].hca[3] typename "\"fattreenew.HCA\""
par Fattreenew.cn[4].work_gen typename "\"fattreenew.WorkGenerator\""
par Fattreenew.cn[4].work_gen sendInitialMessage true
par Fattreenew.cn[4].work_gen rng 0
par Fattreenew.cn[4].work_gen data_size 1
par Fattreenew.cn[4].work_gen read_probability 0
par Fattreenew.cn[4].work_gen sendInterval 0.000461612s
attr unit s
par Fattreenew.cn[4].cn_memory_hca typename "\"fattreenew.Payload\""
par Fattreenew.cn[4].cn_memory_hca rng 0
par Fattreenew.cn[4].cn_memory_hca prob_cn 0.5
par Fattreenew.cn[4] typename "\"fattreenew.ComputeNode\""
par Fattreenew.cn[4] num_hca 4
par Fattreenew.cn[5].cn_memory typename "\"fattreenew.Buffer\""
par Fattreenew.cn[5].cn_memory rng 0
par Fattreenew.cn[5].cn_memory flash_buffer 128MB
attr unit MB
par Fattreenew.cn[5].cn_memory read_storage_flash_bw 40960Mbps
attr unit Mbps
par Fattreenew.cn[5].cn_memory write_storage_flash_bw 20480Mbps
attr unit Mbps
par Fattreenew.cn[5].cn_memory DRAM_buffer 2048MB
attr unit MB
par Fattreenew.cn[5].cn_memory read_DRAM_buffer_bw 327680Mbps
attr unit Mbps
par Fattreenew.cn[5].cn_memory write_DRAM_buffer_bw 262144Mbps
attr unit Mbps
par Fattreenew.cn[5].cn_memory SRAM_buffer 2MB
attr unit MB
par Fattreenew.cn[5].cn_memory read_SRAM_buffer_bw 1.5e+06Mbps
attr unit Mbps
par Fattreenew.cn[5].cn_memory write_SRAM_buffer_bw 1e+06Mbps
attr unit Mbps
par Fattreenew.cn[5].cn_memory switch_buffer 16MB
attr unit MB
par Fattreenew.cn[5].cn_memory read_switch_bw 409600Mbps
attr unit Mbps
par Fattreenew.cn[5].cn_memory write_switch_bw 204800Mbps
attr unit Mbps
statistic Fattreenew.cn[5].cn_memory queueLength:stats
field count 0
field mean -nan
field stddev -nan
field min -nan
field max -nan
field sum 0
field sqrsum 0
attr recordingmode stats
attr title "Queue length"
par Fattreenew.cn[5].hca[0].hcaBuffer typename "\"fattreenew.simulations.sramBuffer\""
par Fattreenew.cn[5].hca[0].hcaBuffer rng 0
par Fattreenew.cn[5].hca[0].hcaBuffer flash_buffer 128MB
attr unit MB
par Fattreenew.cn[5].hca[0].hcaBuffer read_storage_flash_bw 40960Mbps
attr unit Mbps
par Fattreenew.cn[5].hca[0].hcaBuffer write_storage_flash_bw 20480Mbps
attr unit Mbps
par Fattreenew.cn[5].hca[0].hcaBuffer DRAM_buffer 2048MB
attr unit MB
par Fattreenew.cn[5].hca[0].hcaBuffer read_DRAM_buffer_bw 327680Mbps
attr unit Mbps
par Fattreenew.cn[5].hca[0].hcaBuffer write_DRAM_buffer_bw 262144Mbps
attr unit Mbps
par Fattreenew.cn[5].hca[0].hcaBuffer SRAM_buffer 2MB
attr unit MB
par Fattreenew.cn[5].hca[0].hcaBuffer read_SRAM_buffer_bw 1.5e+06Mbps
attr unit Mbps
par Fattreenew.cn[5].hca[0].hcaBuffer write_SRAM_buffer_bw 1e+06Mbps
attr unit Mbps
par Fattreenew.cn[5].hca[0].hcaBuffer switch_buffer 16MB
attr unit MB
par Fattreenew.cn[5].hca[0].hcaBuffer read_switch_bw 409600Mbps
attr unit Mbps
par Fattreenew.cn[5].hca[0].hcaBuffer write_switch_bw 204800Mbps
attr unit Mbps
statistic Fattreenew.cn[5].hca[0].hcaBuffer queueLength:stats
field count 0
field mean -nan
field stddev -nan
field min -nan
field max -nan
field sum 0
field sqrsum 0
attr recordingmode stats
attr title "Queue length"
par Fattreenew.cn[5].hca[0].hca_payload typename "\"fattreenew.Payload\""
par Fattreenew.cn[5].hca[0].hca_payload rng 0
par Fattreenew.cn[5].hca[0].hca_payload prob_cn 0.5
par Fattreenew.cn[5].hca[0] typename "\"fattreenew.HCA\""
par Fattreenew.cn[5].hca[1].hcaBuffer typename "\"fattreenew.simulations.sramBuffer\""
par Fattreenew.cn[5].hca[1].hcaBuffer rng 0
par Fattreenew.cn[5].hca[1].hcaBuffer flash_buffer 128MB
attr unit MB
par Fattreenew.cn[5].hca[1].hcaBuffer read_storage_flash_bw 40960Mbps
attr unit Mbps
par Fattreenew.cn[5].hca[1].hcaBuffer write_storage_flash_bw 20480Mbps
attr unit Mbps
par Fattreenew.cn[5].hca[1].hcaBuffer DRAM_buffer 2048MB
attr unit MB
par Fattreenew.cn[5].hca[1].hcaBuffer read_DRAM_buffer_bw 327680Mbps
attr unit Mbps
par Fattreenew.cn[5].hca[1].hcaBuffer write_DRAM_buffer_bw 262144Mbps
attr unit Mbps
par Fattreenew.cn[5].hca[1].hcaBuffer SRAM_buffer 2MB
attr unit MB
par Fattreenew.cn[5].hca[1].hcaBuffer read_SRAM_buffer_bw 1.5e+06Mbps
attr unit Mbps
par Fattreenew.cn[5].hca[1].hcaBuffer write_SRAM_buffer_bw 1e+06Mbps
attr unit Mbps
par Fattreenew.cn[5].hca[1].hcaBuffer switch_buffer 16MB
attr unit MB
par Fattreenew.cn[5].hca[1].hcaBuffer read_switch_bw 409600Mbps
attr unit Mbps
par Fattreenew.cn[5].hca[1].hcaBuffer write_switch_bw 204800Mbps
attr unit Mbps
statistic Fattreenew.cn[5].hca[1].hcaBuffer queueLength:stats
field count 0
field mean -nan
field stddev -nan
field min -nan
field max -nan
field sum 0
field sqrsum 0
attr recordingmode stats
attr title "Queue length"
par Fattreenew.cn[5].hca[1].hca_payload typename "\"fattreenew.Payload\""
par Fattreenew.cn[5].hca[1].hca_payload rng 0
par Fattreenew.cn[5].hca[1].hca_payload prob_cn 0.5
par Fattreenew.cn[5].hca[1] typename "\"fattreenew.HCA\""
par Fattreenew.cn[5].hca[2].hcaBuffer typename "\"fattreenew.simulations.sramBuffer\""
par Fattreenew.cn[5].hca[2].hcaBuffer rng 0
par Fattreenew.cn[5].hca[2].hcaBuffer flash_buffer 128MB
attr unit MB
par Fattreenew.cn[5].hca[2].hcaBuffer read_storage_flash_bw 40960Mbps
attr unit Mbps
par Fattreenew.cn[5].hca[2].hcaBuffer write_storage_flash_bw 20480Mbps
attr unit Mbps
par Fattreenew.cn[5].hca[2].hcaBuffer DRAM_buffer 2048MB
attr unit MB
par Fattreenew.cn[5].hca[2].hcaBuffer read_DRAM_buffer_bw 327680Mbps
attr unit Mbps
par Fattreenew.cn[5].hca[2].hcaBuffer write_DRAM_buffer_bw 262144Mbps
attr unit Mbps
par Fattreenew.cn[5].hca[2].hcaBuffer SRAM_buffer 2MB
attr unit MB
par Fattreenew.cn[5].hca[2].hcaBuffer read_SRAM_buffer_bw 1.5e+06Mbps
attr unit Mbps
par Fattreenew.cn[5].hca[2].hcaBuffer write_SRAM_buffer_bw 1e+06Mbps
attr unit Mbps
par Fattreenew.cn[5].hca[2].hcaBuffer switch_buffer 16MB
attr unit MB
par Fattreenew.cn[5].hca[2].hcaBuffer read_switch_bw 409600Mbps
attr unit Mbps
par Fattreenew.cn[5].hca[2].hcaBuffer write_switch_bw 204800Mbps
attr unit Mbps
statistic Fattreenew.cn[5].hca[2].hcaBuffer queueLength:stats
field count 0
field mean -nan
field stddev -nan
field min -nan
field max -nan
field sum 0
field sqrsum 0
attr recordingmode stats
attr title "Queue length"
par Fattreenew.cn[5].hca[2].hca_payload typename "\"fattreenew.Payload\""
par Fattreenew.cn[5].hca[2].hca_payload rng 0
par Fattreenew.cn[5].hca[2].hca_payload prob_cn 0.5
par Fattreenew.cn[5].hca[2] typename "\"fattreenew.HCA\""
par Fattreenew.cn[5].hca[3].hcaBuffer typename "\"fattreenew.simulations.sramBuffer\""
par Fattreenew.cn[5].hca[3].hcaBuffer rng 0
par Fattreenew.cn[5].hca[3].hcaBuffer flash_buffer 128MB
attr unit MB
par Fattreenew.cn[5].hca[3].hcaBuffer read_storage_flash_bw 40960Mbps
attr unit Mbps
par Fattreenew.cn[5].hca[3].hcaBuffer write_storage_flash_bw 20480Mbps
attr unit Mbps
par Fattreenew.cn[5].hca[3].hcaBuffer DRAM_buffer 2048MB
attr unit MB
par Fattreenew.cn[5].hca[3].hcaBuffer read_DRAM_buffer_bw 327680Mbps
attr unit Mbps
par Fattreenew.cn[5].hca[3].hcaBuffer write_DRAM_buffer_bw 262144Mbps
attr unit Mbps
par Fattreenew.cn[5].hca[3].hcaBuffer SRAM_buffer 2MB
attr unit MB
par Fattreenew.cn[5].hca[3].hcaBuffer read_SRAM_buffer_bw 1.5e+06Mbps
attr unit Mbps
par Fattreenew.cn[5].hca[3].hcaBuffer write_SRAM_buffer_bw 1e+06Mbps
attr unit Mbps
par Fattreenew.cn[5].hca[3].hcaBuffer switch_buffer 16MB
attr unit MB
par Fattreenew.cn[5].hca[3].hcaBuffer read_switch_bw 409600Mbps
attr unit Mbps
par Fattreenew.cn[5].hca[3].hcaBuffer write_switch_bw 204800Mbps
attr unit Mbps
statistic Fattreenew.cn[5].hca[3].hcaBuffer queueLength:stats
field count 0
field mean -nan
field stddev -nan
field min -nan
field max -nan
field sum 0
field sqrsum 0
attr recordingmode stats
attr title "Queue length"
par Fattreenew.cn[5].hca[3].hca_payload typename "\"fattreenew.Payload\""
par Fattreenew.cn[5].hca[3].hca_payload rng 0
par Fattreenew.cn[5].hca[3].hca_payload prob_cn 0.5
par Fattreenew.cn[5].hca[3] typename "\"fattreenew.HCA\""
par Fattreenew.cn[5].work_gen typename "\"fattreenew.WorkGenerator\""
par Fattreenew.cn[5].work_gen sendInitialMessage true
par Fattreenew.cn[5].work_gen rng 0
par Fattreenew.cn[5].work_gen data_size 1
par Fattreenew.cn[5].work_gen read_probability 0
par Fattreenew.cn[5].work_gen sendInterval 0.000975773s
attr unit s
par Fattreenew.cn[5].cn_memory_hca typename "\"fattreenew.Payload\""
par Fattreenew.cn[5].cn_memory_hca rng 0
par Fattreenew.cn[5].cn_memory_hca prob_cn 0.5
par Fattreenew.cn[5] typename "\"fattreenew.ComputeNode\""
par Fattreenew.cn[5] num_hca 4
par Fattreenew.cn[6].cn_memory typename "\"fattreenew.Buffer\""
par Fattreenew.cn[6].cn_memory rng 0
par Fattreenew.cn[6].cn_memory flash_buffer 128MB
attr unit MB
par Fattreenew.cn[6].cn_memory read_storage_flash_bw 40960Mbps
attr unit Mbps
par Fattreenew.cn[6].cn_memory write_storage_flash_bw 20480Mbps
attr unit Mbps
par Fattreenew.cn[6].cn_memory DRAM_buffer 2048MB
attr unit MB
par Fattreenew.cn[6].cn_memory read_DRAM_buffer_bw 327680Mbps
attr unit Mbps
par Fattreenew.cn[6].cn_memory write_DRAM_buffer_bw 262144Mbps
attr unit Mbps
par Fattreenew.cn[6].cn_memory SRAM_buffer 2MB
attr unit MB
par Fattreenew.cn[6].cn_memory read_SRAM_buffer_bw 1.5e+06Mbps
attr unit Mbps
par Fattreenew.cn[6].cn_memory write_SRAM_buffer_bw 1e+06Mbps
attr unit Mbps
par Fattreenew.cn[6].cn_memory switch_buffer 16MB
attr unit MB
par Fattreenew.cn[6].cn_memory read_switch_bw 409600Mbps
attr unit Mbps
par Fattreenew.cn[6].cn_memory write_switch_bw 204800Mbps
attr unit Mbps
statistic Fattreenew.cn[6].cn_memory queueLength:stats
field count 0
field mean -nan
field stddev -nan
field min -nan
field max -nan
field sum 0
field sqrsum 0
attr recordingmode stats
attr title "Queue length"
par Fattreenew.cn[6].hca[0].hcaBuffer typename "\"fattreenew.simulations.sramBuffer\""
par Fattreenew.cn[6].hca[0].hcaBuffer rng 0
par Fattreenew.cn[6].hca[0].hcaBuffer flash_buffer 128MB
attr unit MB
par Fattreenew.cn[6].hca[0].hcaBuffer read_storage_flash_bw 40960Mbps
attr unit Mbps
par Fattreenew.cn[6].hca[0].hcaBuffer write_storage_flash_bw 20480Mbps
attr unit Mbps
par Fattreenew.cn[6].hca[0].hcaBuffer DRAM_buffer 2048MB
attr unit MB
par Fattreenew.cn[6].hca[0].hcaBuffer read_DRAM_buffer_bw 327680Mbps
attr unit Mbps
par Fattreenew.cn[6].hca[0].hcaBuffer write_DRAM_buffer_bw 262144Mbps
attr unit Mbps
par Fattreenew.cn[6].hca[0].hcaBuffer SRAM_buffer 2MB
attr unit MB
par Fattreenew.cn[6].hca[0].hcaBuffer read_SRAM_buffer_bw 1.5e+06Mbps
attr unit Mbps
par Fattreenew.cn[6].hca[0].hcaBuffer write_SRAM_buffer_bw 1e+06Mbps
attr unit Mbps
par Fattreenew.cn[6].hca[0].hcaBuffer switch_buffer 16MB
attr unit MB
par Fattreenew.cn[6].hca[0].hcaBuffer read_switch_bw 409600Mbps
attr unit Mbps
par Fattreenew.cn[6].hca[0].hcaBuffer write_switch_bw 204800Mbps
attr unit Mbps
statistic Fattreenew.cn[6].hca[0].hcaBuffer queueLength:stats
field count 0
field mean -nan
field stddev -nan
field min -nan
field max -nan
field sum 0
field sqrsum 0
attr recordingmode stats
attr title "Queue length"
par Fattreenew.cn[6].hca[0].hca_payload typename "\"fattreenew.Payload\""
par Fattreenew.cn[6].hca[0].hca_payload rng 0
par Fattreenew.cn[6].hca[0].hca_payload prob_cn 0.5
par Fattreenew.cn[6].hca[0] typename "\"fattreenew.HCA\""
par Fattreenew.cn[6].hca[1].hcaBuffer typename "\"fattreenew.simulations.sramBuffer\""
par Fattreenew.cn[6].hca[1].hcaBuffer rng 0
par Fattreenew.cn[6].hca[1].hcaBuffer flash_buffer 128MB
attr unit MB
par Fattreenew.cn[6].hca[1].hcaBuffer read_storage_flash_bw 40960Mbps
attr unit Mbps
par Fattreenew.cn[6].hca[1].hcaBuffer write_storage_flash_bw 20480Mbps
attr unit Mbps
par Fattreenew.cn[6].hca[1].hcaBuffer DRAM_buffer 2048MB
attr unit MB
par Fattreenew.cn[6].hca[1].hcaBuffer read_DRAM_buffer_bw 327680Mbps
attr unit Mbps
par Fattreenew.cn[6].hca[1].hcaBuffer write_DRAM_buffer_bw 262144Mbps
attr unit Mbps
par Fattreenew.cn[6].hca[1].hcaBuffer SRAM_buffer 2MB
attr unit MB
par Fattreenew.cn[6].hca[1].hcaBuffer read_SRAM_buffer_bw 1.5e+06Mbps
attr unit Mbps
par Fattreenew.cn[6].hca[1].hcaBuffer write_SRAM_buffer_bw 1e+06Mbps
attr unit Mbps
par Fattreenew.cn[6].hca[1].hcaBuffer switch_buffer 16MB
attr unit MB
par Fattreenew.cn[6].hca[1].hcaBuffer read_switch_bw 409600Mbps
attr unit Mbps
par Fattreenew.cn[6].hca[1].hcaBuffer write_switch_bw 204800Mbps
attr unit Mbps
statistic Fattreenew.cn[6].hca[1].hcaBuffer queueLength:stats
field count 0
field mean -nan
field stddev -nan
field min -nan
field max -nan
field sum 0
field sqrsum 0
attr recordingmode stats
attr title "Queue length"
par Fattreenew.cn[6].hca[1].hca_payload typename "\"fattreenew.Payload\""
par Fattreenew.cn[6].hca[1].hca_payload rng 0
par Fattreenew.cn[6].hca[1].hca_payload prob_cn 0.5
par Fattreenew.cn[6].hca[1] typename "\"fattreenew.HCA\""
par Fattreenew.cn[6].hca[2].hcaBuffer typename "\"fattreenew.simulations.sramBuffer\""
par Fattreenew.cn[6].hca[2].hcaBuffer rng 0
par Fattreenew.cn[6].hca[2].hcaBuffer flash_buffer 128MB
attr unit MB
par Fattreenew.cn[6].hca[2].hcaBuffer read_storage_flash_bw 40960Mbps
attr unit Mbps
par Fattreenew.cn[6].hca[2].hcaBuffer write_storage_flash_bw 20480Mbps
attr unit Mbps
par Fattreenew.cn[6].hca[2].hcaBuffer DRAM_buffer 2048MB
attr unit MB
par Fattreenew.cn[6].hca[2].hcaBuffer read_DRAM_buffer_bw 327680Mbps
attr unit Mbps
par Fattreenew.cn[6].hca[2].hcaBuffer write_DRAM_buffer_bw 262144Mbps
attr unit Mbps
par Fattreenew.cn[6].hca[2].hcaBuffer SRAM_buffer 2MB
attr unit MB
par Fattreenew.cn[6].hca[2].hcaBuffer read_SRAM_buffer_bw 1.5e+06Mbps
attr unit Mbps
par Fattreenew.cn[6].hca[2].hcaBuffer write_SRAM_buffer_bw 1e+06Mbps
attr unit Mbps
par Fattreenew.cn[6].hca[2].hcaBuffer switch_buffer 16MB
attr unit MB
par Fattreenew.cn[6].hca[2].hcaBuffer read_switch_bw 409600Mbps
attr unit Mbps
par Fattreenew.cn[6].hca[2].hcaBuffer write_switch_bw 204800Mbps
attr unit Mbps
statistic Fattreenew.cn[6].hca[2].hcaBuffer queueLength:stats
field count 0
field mean -nan
field stddev -nan
field min -nan
field max -nan
field sum 0
field sqrsum 0
attr recordingmode stats
attr title "Queue length"
par Fattreenew.cn[6].hca[2].hca_payload typename "\"fattreenew.Payload\""
par Fattreenew.cn[6].hca[2].hca_payload rng 0
par Fattreenew.cn[6].hca[2].hca_payload prob_cn 0.5
par Fattreenew.cn[6].hca[2] typename "\"fattreenew.HCA\""
par Fattreenew.cn[6].hca[3].hcaBuffer typename "\"fattreenew.simulations.sramBuffer\""
par Fattreenew.cn[6].hca[3].hcaBuffer rng 0
par Fattreenew.cn[6].hca[3].hcaBuffer flash_buffer 128MB
attr unit MB
par Fattreenew.cn[6].hca[3].hcaBuffer read_storage_flash_bw 40960Mbps
attr unit Mbps
par Fattreenew.cn[6].hca[3].hcaBuffer write_storage_flash_bw 20480Mbps
attr unit Mbps
par Fattreenew.cn[6].hca[3].hcaBuffer DRAM_buffer 2048MB
attr unit MB
par Fattreenew.cn[6].hca[3].hcaBuffer read_DRAM_buffer_bw 327680Mbps
attr unit Mbps
par Fattreenew.cn[6].hca[3].hcaBuffer write_DRAM_buffer_bw 262144Mbps
attr unit Mbps
par Fattreenew.cn[6].hca[3].hcaBuffer SRAM_buffer 2MB
attr unit MB
par Fattreenew.cn[6].hca[3].hcaBuffer read_SRAM_buffer_bw 1.5e+06Mbps
attr unit Mbps
par Fattreenew.cn[6].hca[3].hcaBuffer write_SRAM_buffer_bw 1e+06Mbps
attr unit Mbps
par Fattreenew.cn[6].hca[3].hcaBuffer switch_buffer 16MB
attr unit MB
par Fattreenew.cn[6].hca[3].hcaBuffer read_switch_bw 409600Mbps
attr unit Mbps
par Fattreenew.cn[6].hca[3].hcaBuffer write_switch_bw 204800Mbps
attr unit Mbps
statistic Fattreenew.cn[6].hca[3].hcaBuffer queueLength:stats
field count 0
field mean -nan
field stddev -nan
field min -nan
field max -nan
field sum 0
field sqrsum 0
attr recordingmode stats
attr title "Queue length"
par Fattreenew.cn[6].hca[3].hca_payload typename "\"fattreenew.Payload\""
par Fattreenew.cn[6].hca[3].hca_payload rng 0
par Fattreenew.cn[6].hca[3].hca_payload prob_cn 0.5
par Fattreenew.cn[6].hca[3] typename "\"fattreenew.HCA\""
par Fattreenew.cn[6].work_gen typename "\"fattreenew.WorkGenerator\""
par Fattreenew.cn[6].work_gen sendInitialMessage true
par Fattreenew.cn[6].work_gen rng 0
par Fattreenew.cn[6].work_gen data_size 1
par Fattreenew.cn[6].work_gen read_probability 0
par Fattreenew.cn[6].work_gen sendInterval 0.000393601s
attr unit s
par Fattreenew.cn[6].cn_memory_hca typename "\"fattreenew.Payload\""
par Fattreenew.cn[6].cn_memory_hca rng 0
par Fattreenew.cn[6].cn_memory_hca prob_cn 0.5
par Fattreenew.cn[6] typename "\"fattreenew.ComputeNode\""
par Fattreenew.cn[6] num_hca 4
par Fattreenew.cn[7].cn_memory typename "\"fattreenew.Buffer\""
par Fattreenew.cn[7].cn_memory rng 0
par Fattreenew.cn[7].cn_memory flash_buffer 128MB
attr unit MB
par Fattreenew.cn[7].cn_memory read_storage_flash_bw 40960Mbps
attr unit Mbps
par Fattreenew.cn[7].cn_memory write_storage_flash_bw 20480Mbps
attr unit Mbps
par Fattreenew.cn[7].cn_memory DRAM_buffer 2048MB
attr unit MB
par Fattreenew.cn[7].cn_memory read_DRAM_buffer_bw 327680Mbps
attr unit Mbps
par Fattreenew.cn[7].cn_memory write_DRAM_buffer_bw 262144Mbps
attr unit Mbps
par Fattreenew.cn[7].cn_memory SRAM_buffer 2MB
attr unit MB
par Fattreenew.cn[7].cn_memory read_SRAM_buffer_bw 1.5e+06Mbps
attr unit Mbps
par Fattreenew.cn[7].cn_memory write_SRAM_buffer_bw 1e+06Mbps
attr unit Mbps
par Fattreenew.cn[7].cn_memory switch_buffer 16MB
attr unit MB
par Fattreenew.cn[7].cn_memory read_switch_bw 409600Mbps
attr unit Mbps
par Fattreenew.cn[7].cn_memory write_switch_bw 204800Mbps
attr unit Mbps
statistic Fattreenew.cn[7].cn_memory queueLength:stats
field count 0
field mean -nan
field stddev -nan
field min -nan
field max -nan
field sum 0
field sqrsum 0
attr recordingmode stats
attr title "Queue length"
par Fattreenew.cn[7].hca[0].hcaBuffer typename "\"fattreenew.simulations.sramBuffer\""
par Fattreenew.cn[7].hca[0].hcaBuffer rng 0
par Fattreenew.cn[7].hca[0].hcaBuffer flash_buffer 128MB
attr unit MB
par Fattreenew.cn[7].hca[0].hcaBuffer read_storage_flash_bw 40960Mbps
attr unit Mbps
par Fattreenew.cn[7].hca[0].hcaBuffer write_storage_flash_bw 20480Mbps
attr unit Mbps
par Fattreenew.cn[7].hca[0].hcaBuffer DRAM_buffer 2048MB
attr unit MB
par Fattreenew.cn[7].hca[0].hcaBuffer read_DRAM_buffer_bw 327680Mbps
attr unit Mbps
par Fattreenew.cn[7].hca[0].hcaBuffer write_DRAM_buffer_bw 262144Mbps
attr unit Mbps
par Fattreenew.cn[7].hca[0].hcaBuffer SRAM_buffer 2MB
attr unit MB
par Fattreenew.cn[7].hca[0].hcaBuffer read_SRAM_buffer_bw 1.5e+06Mbps
attr unit Mbps
par Fattreenew.cn[7].hca[0].hcaBuffer write_SRAM_buffer_bw 1e+06Mbps
attr unit Mbps
par Fattreenew.cn[7].hca[0].hcaBuffer switch_buffer 16MB
attr unit MB
par Fattreenew.cn[7].hca[0].hcaBuffer read_switch_bw 409600Mbps
attr unit Mbps
par Fattreenew.cn[7].hca[0].hcaBuffer write_switch_bw 204800Mbps
attr unit Mbps
statistic Fattreenew.cn[7].hca[0].hcaBuffer queueLength:stats
field count 0
field mean -nan
field stddev -nan
field min -nan
field max -nan
field sum 0
field sqrsum 0
attr recordingmode stats
attr title "Queue length"
par Fattreenew.cn[7].hca[0].hca_payload typename "\"fattreenew.Payload\""
par Fattreenew.cn[7].hca[0].hca_payload rng 0
par Fattreenew.cn[7].hca[0].hca_payload prob_cn 0.5
par Fattreenew.cn[7].hca[0] typename "\"fattreenew.HCA\""
par Fattreenew.cn[7].hca[1].hcaBuffer typename "\"fattreenew.simulations.sramBuffer\""
par Fattreenew.cn[7].hca[1].hcaBuffer rng 0
par Fattreenew.cn[7].hca[1].hcaBuffer flash_buffer 128MB
attr unit MB
par Fattreenew.cn[7].hca[1].hcaBuffer read_storage_flash_bw 40960Mbps
attr unit Mbps
par Fattreenew.cn[7].hca[1].hcaBuffer write_storage_flash_bw 20480Mbps
attr unit Mbps
par Fattreenew.cn[7].hca[1].hcaBuffer DRAM_buffer 2048MB
attr unit MB
par Fattreenew.cn[7].hca[1].hcaBuffer read_DRAM_buffer_bw 327680Mbps
attr unit Mbps
par Fattreenew.cn[7].hca[1].hcaBuffer write_DRAM_buffer_bw 262144Mbps
attr unit Mbps
par Fattreenew.cn[7].hca[1].hcaBuffer SRAM_buffer 2MB
attr unit MB
par Fattreenew.cn[7].hca[1].hcaBuffer read_SRAM_buffer_bw 1.5e+06Mbps
attr unit Mbps
par Fattreenew.cn[7].hca[1].hcaBuffer write_SRAM_buffer_bw 1e+06Mbps
attr unit Mbps
par Fattreenew.cn[7].hca[1].hcaBuffer switch_buffer 16MB
attr unit MB
par Fattreenew.cn[7].hca[1].hcaBuffer read_switch_bw 409600Mbps
attr unit Mbps
par Fattreenew.cn[7].hca[1].hcaBuffer write_switch_bw 204800Mbps
attr unit Mbps
statistic Fattreenew.cn[7].hca[1].hcaBuffer queueLength:stats
field count 0
field mean -nan
field stddev -nan
field min -nan
field max -nan
field sum 0
field sqrsum 0
attr recordingmode stats
attr title "Queue length"
par Fattreenew.cn[7].hca[1].hca_payload typename "\"fattreenew.Payload\""
par Fattreenew.cn[7].hca[1].hca_payload rng 0
par Fattreenew.cn[7].hca[1].hca_payload prob_cn 0.5
par Fattreenew.cn[7].hca[1] typename "\"fattreenew.HCA\""
par Fattreenew.cn[7].hca[2].hcaBuffer typename "\"fattreenew.simulations.sramBuffer\""
par Fattreenew.cn[7].hca[2].hcaBuffer rng 0
par Fattreenew.cn[7].hca[2].hcaBuffer flash_buffer 128MB
attr unit MB
par Fattreenew.cn[7].hca[2].hcaBuffer read_storage_flash_bw 40960Mbps
attr unit Mbps
par Fattreenew.cn[7].hca[2].hcaBuffer write_storage_flash_bw 20480Mbps
attr unit Mbps
par Fattreenew.cn[7].hca[2].hcaBuffer DRAM_buffer 2048MB
attr unit MB
par Fattreenew.cn[7].hca[2].hcaBuffer read_DRAM_buffer_bw 327680Mbps
attr unit Mbps
par Fattreenew.cn[7].hca[2].hcaBuffer write_DRAM_buffer_bw 262144Mbps
attr unit Mbps
par Fattreenew.cn[7].hca[2].hcaBuffer SRAM_buffer 2MB
attr unit MB
par Fattreenew.cn[7].hca[2].hcaBuffer read_SRAM_buffer_bw 1.5e+06Mbps
attr unit Mbps
par Fattreenew.cn[7].hca[2].hcaBuffer write_SRAM_buffer_bw 1e+06Mbps
attr unit Mbps
par Fattreenew.cn[7].hca[2].hcaBuffer switch_buffer 16MB
attr unit MB
par Fattreenew.cn[7].hca[2].hcaBuffer read_switch_bw 409600Mbps
attr unit Mbps
par Fattreenew.cn[7].hca[2].hcaBuffer write_switch_bw 204800Mbps
attr unit Mbps
statistic Fattreenew.cn[7].hca[2].hcaBuffer queueLength:stats
field count 0
field mean -nan
field stddev -nan
field min -nan
field max -nan
field sum 0
field sqrsum 0
attr recordingmode stats
attr title "Queue length"
par Fattreenew.cn[7].hca[2].hca_payload typename "\"fattreenew.Payload\""
par Fattreenew.cn[7].hca[2].hca_payload rng 0
par Fattreenew.cn[7].hca[2].hca_payload prob_cn 0.5
par Fattreenew.cn[7].hca[2] typename "\"fattreenew.HCA\""
par Fattreenew.cn[7].hca[3].hcaBuffer typename "\"fattreenew.simulations.sramBuffer\""
par Fattreenew.cn[7].hca[3].hcaBuffer rng 0
par Fattreenew.cn[7].hca[3].hcaBuffer flash_buffer 128MB
attr unit MB
par Fattreenew.cn[7].hca[3].hcaBuffer read_storage_flash_bw 40960Mbps
attr unit Mbps
par Fattreenew.cn[7].hca[3].hcaBuffer write_storage_flash_bw 20480Mbps
attr unit Mbps
par Fattreenew.cn[7].hca[3].hcaBuffer DRAM_buffer 2048MB
attr unit MB
par Fattreenew.cn[7].hca[3].hcaBuffer read_DRAM_buffer_bw 327680Mbps
attr unit Mbps
par Fattreenew.cn[7].hca[3].hcaBuffer write_DRAM_buffer_bw 262144Mbps
attr unit Mbps
par Fattreenew.cn[7].hca[3].hcaBuffer SRAM_buffer 2MB
attr unit MB
par Fattreenew.cn[7].hca[3].hcaBuffer read_SRAM_buffer_bw 1.5e+06Mbps
attr unit Mbps
par Fattreenew.cn[7].hca[3].hcaBuffer write_SRAM_buffer_bw 1e+06Mbps
attr unit Mbps
par Fattreenew.cn[7].hca[3].hcaBuffer switch_buffer 16MB
attr unit MB
par Fattreenew.cn[7].hca[3].hcaBuffer read_switch_bw 409600Mbps
attr unit Mbps
par Fattreenew.cn[7].hca[3].hcaBuffer write_switch_bw 204800Mbps
attr unit Mbps
statistic Fattreenew.cn[7].hca[3].hcaBuffer queueLength:stats
field count 0
field mean -nan
field stddev -nan
field min -nan
field max -nan
field sum 0
field sqrsum 0
attr recordingmode stats
attr title "Queue length"
par Fattreenew.cn[7].hca[3].hca_payload typename "\"fattreenew.Payload\""
par Fattreenew.cn[7].hca[3].hca_payload rng 0
par Fattreenew.cn[7].hca[3].hca_payload prob_cn 0.5
par Fattreenew.cn[7].hca[3] typename "\"fattreenew.HCA\""
par Fattreenew.cn[7].work_gen typename "\"fattreenew.WorkGenerator\""
par Fattreenew.cn[7].work_gen sendInitialMessage true
par Fattreenew.cn[7].work_gen rng 0
par Fattreenew.cn[7].work_gen data_size 1
par Fattreenew.cn[7].work_gen read_probability 0
par Fattreenew.cn[7].work_gen sendInterval 0.000939482s
attr unit s
par Fattreenew.cn[7].cn_memory_hca typename "\"fattreenew.Payload\""
par Fattreenew.cn[7].cn_memory_hca rng 0
par Fattreenew.cn[7].cn_memory_hca prob_cn 0.5
par Fattreenew.cn[7] typename "\"fattreenew.ComputeNode\""
par Fattreenew.cn[7] num_hca 4
par Fattreenew.cn[8].cn_memory typename "\"fattreenew.Buffer\""
par Fattreenew.cn[8].cn_memory rng 0
par Fattreenew.cn[8].cn_memory flash_buffer 128MB
attr unit MB
par Fattreenew.cn[8].cn_memory read_storage_flash_bw 40960Mbps
attr unit Mbps
par Fattreenew.cn[8].cn_memory write_storage_flash_bw 20480Mbps
attr unit Mbps
par Fattreenew.cn[8].cn_memory DRAM_buffer 2048MB
attr unit MB
par Fattreenew.cn[8].cn_memory read_DRAM_buffer_bw 327680Mbps
attr unit Mbps
par Fattreenew.cn[8].cn_memory write_DRAM_buffer_bw 262144Mbps
attr unit Mbps
par Fattreenew.cn[8].cn_memory SRAM_buffer 2MB
attr unit MB
par Fattreenew.cn[8].cn_memory read_SRAM_buffer_bw 1.5e+06Mbps
attr unit Mbps
par Fattreenew.cn[8].cn_memory write_SRAM_buffer_bw 1e+06Mbps
attr unit Mbps
par Fattreenew.cn[8].cn_memory switch_buffer 16MB
attr unit MB
par Fattreenew.cn[8].cn_memory read_switch_bw 409600Mbps
attr unit Mbps
par Fattreenew.cn[8].cn_memory write_switch_bw 204800Mbps
attr unit Mbps
statistic Fattreenew.cn[8].cn_memory queueLength:stats
field count 0
field mean -nan
field stddev -nan
field min -nan
field max -nan
field sum 0
field sqrsum 0
attr recordingmode stats
attr title "Queue length"
par Fattreenew.cn[8].hca[0].hcaBuffer typename "\"fattreenew.simulations.sramBuffer\""
par Fattreenew.cn[8].hca[0].hcaBuffer rng 0
par Fattreenew.cn[8].hca[0].hcaBuffer flash_buffer 128MB
attr unit MB
par Fattreenew.cn[8].hca[0].hcaBuffer read_storage_flash_bw 40960Mbps
attr unit Mbps
par Fattreenew.cn[8].hca[0].hcaBuffer write_storage_flash_bw 20480Mbps
attr unit Mbps
par Fattreenew.cn[8].hca[0].hcaBuffer DRAM_buffer 2048MB
attr unit MB
par Fattreenew.cn[8].hca[0].hcaBuffer read_DRAM_buffer_bw 327680Mbps
attr unit Mbps
par Fattreenew.cn[8].hca[0].hcaBuffer write_DRAM_buffer_bw 262144Mbps
attr unit Mbps
par Fattreenew.cn[8].hca[0].hcaBuffer SRAM_buffer 2MB
attr unit MB
par Fattreenew.cn[8].hca[0].hcaBuffer read_SRAM_buffer_bw 1.5e+06Mbps
attr unit Mbps
par Fattreenew.cn[8].hca[0].hcaBuffer write_SRAM_buffer_bw 1e+06Mbps
attr unit Mbps
par Fattreenew.cn[8].hca[0].hcaBuffer switch_buffer 16MB
attr unit MB
par Fattreenew.cn[8].hca[0].hcaBuffer read_switch_bw 409600Mbps
attr unit Mbps
par Fattreenew.cn[8].hca[0].hcaBuffer write_switch_bw 204800Mbps
attr unit Mbps
statistic Fattreenew.cn[8].hca[0].hcaBuffer queueLength:stats
field count 0
field mean -nan
field stddev -nan
field min -nan
field max -nan
field sum 0
field sqrsum 0
attr recordingmode stats
attr title "Queue length"
par Fattreenew.cn[8].hca[0].hca_payload typename "\"fattreenew.Payload\""
par Fattreenew.cn[8].hca[0].hca_payload rng 0
par Fattreenew.cn[8].hca[0].hca_payload prob_cn 0.5
par Fattreenew.cn[8].hca[0] typename "\"fattreenew.HCA\""
par Fattreenew.cn[8].hca[1].hcaBuffer typename "\"fattreenew.simulations.sramBuffer\""
par Fattreenew.cn[8].hca[1].hcaBuffer rng 0
par Fattreenew.cn[8].hca[1].hcaBuffer flash_buffer 128MB
attr unit MB
par Fattreenew.cn[8].hca[1].hcaBuffer read_storage_flash_bw 40960Mbps
attr unit Mbps
par Fattreenew.cn[8].hca[1].hcaBuffer write_storage_flash_bw 20480Mbps
attr unit Mbps
par Fattreenew.cn[8].hca[1].hcaBuffer DRAM_buffer 2048MB
attr unit MB
par Fattreenew.cn[8].hca[1].hcaBuffer read_DRAM_buffer_bw 327680Mbps
attr unit Mbps
par Fattreenew.cn[8].hca[1].hcaBuffer write_DRAM_buffer_bw 262144Mbps
attr unit Mbps
par Fattreenew.cn[8].hca[1].hcaBuffer SRAM_buffer 2MB
attr unit MB
par Fattreenew.cn[8].hca[1].hcaBuffer read_SRAM_buffer_bw 1.5e+06Mbps
attr unit Mbps
par Fattreenew.cn[8].hca[1].hcaBuffer write_SRAM_buffer_bw 1e+06Mbps
attr unit Mbps
par Fattreenew.cn[8].hca[1].hcaBuffer switch_buffer 16MB
attr unit MB
par Fattreenew.cn[8].hca[1].hcaBuffer read_switch_bw 409600Mbps
attr unit Mbps
par Fattreenew.cn[8].hca[1].hcaBuffer write_switch_bw 204800Mbps
attr unit Mbps
statistic Fattreenew.cn[8].hca[1].hcaBuffer queueLength:stats
field count 0
field mean -nan
field stddev -nan
field min -nan
field max -nan
field sum 0
field sqrsum 0
attr recordingmode stats
attr title "Queue length"
par Fattreenew.cn[8].hca[1].hca_payload typename "\"fattreenew.Payload\""
par Fattreenew.cn[8].hca[1].hca_payload rng 0
par Fattreenew.cn[8].hca[1].hca_payload prob_cn 0.5
par Fattreenew.cn[8].hca[1] typename "\"fattreenew.HCA\""
par Fattreenew.cn[8].hca[2].hcaBuffer typename "\"fattreenew.simulations.sramBuffer\""
par Fattreenew.cn[8].hca[2].hcaBuffer rng 0
par Fattreenew.cn[8].hca[2].hcaBuffer flash_buffer 128MB
attr unit MB
par Fattreenew.cn[8].hca[2].hcaBuffer read_storage_flash_bw 40960Mbps
attr unit Mbps
par Fattreenew.cn[8].hca[2].hcaBuffer write_storage_flash_bw 20480Mbps
attr unit Mbps
par Fattreenew.cn[8].hca[2].hcaBuffer DRAM_buffer 2048MB
attr unit MB
par Fattreenew.cn[8].hca[2].hcaBuffer read_DRAM_buffer_bw 327680Mbps
attr unit Mbps
par Fattreenew.cn[8].hca[2].hcaBuffer write_DRAM_buffer_bw 262144Mbps
attr unit Mbps
par Fattreenew.cn[8].hca[2].hcaBuffer SRAM_buffer 2MB
attr unit MB
par Fattreenew.cn[8].hca[2].hcaBuffer read_SRAM_buffer_bw 1.5e+06Mbps
attr unit Mbps
par Fattreenew.cn[8].hca[2].hcaBuffer write_SRAM_buffer_bw 1e+06Mbps
attr unit Mbps
par Fattreenew.cn[8].hca[2].hcaBuffer switch_buffer 16MB
attr unit MB
par Fattreenew.cn[8].hca[2].hcaBuffer read_switch_bw 409600Mbps
attr unit Mbps
par Fattreenew.cn[8].hca[2].hcaBuffer write_switch_bw 204800Mbps
attr unit Mbps
statistic Fattreenew.cn[8].hca[2].hcaBuffer queueLength:stats
field count 0
field mean -nan
field stddev -nan
field min -nan
field max -nan
field sum 0
field sqrsum 0
attr recordingmode stats
attr title "Queue length"
par Fattreenew.cn[8].hca[2].hca_payload typename "\"fattreenew.Payload\""
par Fattreenew.cn[8].hca[2].hca_payload rng 0
par Fattreenew.cn[8].hca[2].hca_payload prob_cn 0.5
par Fattreenew.cn[8].hca[2] typename "\"fattreenew.HCA\""
par Fattreenew.cn[8].hca[3].hcaBuffer typename "\"fattreenew.simulations.sramBuffer\""
par Fattreenew.cn[8].hca[3].hcaBuffer rng 0
par Fattreenew.cn[8].hca[3].hcaBuffer flash_buffer 128MB
attr unit MB
par Fattreenew.cn[8].hca[3].hcaBuffer read_storage_flash_bw 40960Mbps
attr unit Mbps
par Fattreenew.cn[8].hca[3].hcaBuffer write_storage_flash_bw 20480Mbps
attr unit Mbps
par Fattreenew.cn[8].hca[3].hcaBuffer DRAM_buffer 2048MB
attr unit MB
par Fattreenew.cn[8].hca[3].hcaBuffer read_DRAM_buffer_bw 327680Mbps
attr unit Mbps
par Fattreenew.cn[8].hca[3].hcaBuffer write_DRAM_buffer_bw 262144Mbps
attr unit Mbps
par Fattreenew.cn[8].hca[3].hcaBuffer SRAM_buffer 2MB
attr unit MB
par Fattreenew.cn[8].hca[3].hcaBuffer read_SRAM_buffer_bw 1.5e+06Mbps
attr unit Mbps
par Fattreenew.cn[8].hca[3].hcaBuffer write_SRAM_buffer_bw 1e+06Mbps
attr unit Mbps
par Fattreenew.cn[8].hca[3].hcaBuffer switch_buffer 16MB
attr unit MB
par Fattreenew.cn[8].hca[3].hcaBuffer read_switch_bw 409600Mbps
attr unit Mbps
par Fattreenew.cn[8].hca[3].hcaBuffer write_switch_bw 204800Mbps
attr unit Mbps
statistic Fattreenew.cn[8].hca[3].hcaBuffer queueLength:stats
field count 0
field mean -nan
field stddev -nan
field min -nan
field max -nan
field sum 0
field sqrsum 0
attr recordingmode stats
attr title "Queue length"
par Fattreenew.cn[8].hca[3].hca_payload typename "\"fattreenew.Payload\""
par Fattreenew.cn[8].hca[3].hca_payload rng 0
par Fattreenew.cn[8].hca[3].hca_payload prob_cn 0.5
par Fattreenew.cn[8].hca[3] typename "\"fattreenew.HCA\""
par Fattreenew.cn[8].work_gen typename "\"fattreenew.WorkGenerator\""
par Fattreenew.cn[8].work_gen sendInitialMessage true
par Fattreenew.cn[8].work_gen rng 0
par Fattreenew.cn[8].work_gen data_size 1
par Fattreenew.cn[8].work_gen read_probability 0
par Fattreenew.cn[8].work_gen sendInterval 0.000275524s
attr unit s
par Fattreenew.cn[8].cn_memory_hca typename "\"fattreenew.Payload\""
par Fattreenew.cn[8].cn_memory_hca rng 0
par Fattreenew.cn[8].cn_memory_hca prob_cn 0.5
par Fattreenew.cn[8] typename "\"fattreenew.ComputeNode\""
par Fattreenew.cn[8] num_hca 4
par Fattreenew.cn[9].cn_memory typename "\"fattreenew.Buffer\""
par Fattreenew.cn[9].cn_memory rng 0
par Fattreenew.cn[9].cn_memory flash_buffer 128MB
attr unit MB
par Fattreenew.cn[9].cn_memory read_storage_flash_bw 40960Mbps
attr unit Mbps
par Fattreenew.cn[9].cn_memory write_storage_flash_bw 20480Mbps
attr unit Mbps
par Fattreenew.cn[9].cn_memory DRAM_buffer 2048MB
attr unit MB
par Fattreenew.cn[9].cn_memory read_DRAM_buffer_bw 327680Mbps
attr unit Mbps
par Fattreenew.cn[9].cn_memory write_DRAM_buffer_bw 262144Mbps
attr unit Mbps
par Fattreenew.cn[9].cn_memory SRAM_buffer 2MB
attr unit MB
par Fattreenew.cn[9].cn_memory read_SRAM_buffer_bw 1.5e+06Mbps
attr unit Mbps
par Fattreenew.cn[9].cn_memory write_SRAM_buffer_bw 1e+06Mbps
attr unit Mbps
par Fattreenew.cn[9].cn_memory switch_buffer 16MB
attr unit MB
par Fattreenew.cn[9].cn_memory read_switch_bw 409600Mbps
attr unit Mbps
par Fattreenew.cn[9].cn_memory write_switch_bw 204800Mbps
attr unit Mbps
statistic Fattreenew.cn[9].cn_memory queueLength:stats
field count 0
field mean -nan
field stddev -nan
field min -nan
field max -nan
field sum 0
field sqrsum 0
attr recordingmode stats
attr title "Queue length"
par Fattreenew.cn[9].hca[0].hcaBuffer typename "\"fattreenew.simulations.sramBuffer\""
par Fattreenew.cn[9].hca[0].hcaBuffer rng 0
par Fattreenew.cn[9].hca[0].hcaBuffer flash_buffer 128MB
attr unit MB
par Fattreenew.cn[9].hca[0].hcaBuffer read_storage_flash_bw 40960Mbps
attr unit Mbps
par Fattreenew.cn[9].hca[0].hcaBuffer write_storage_flash_bw 20480Mbps
attr unit Mbps
par Fattreenew.cn[9].hca[0].hcaBuffer DRAM_buffer 2048MB
attr unit MB
par Fattreenew.cn[9].hca[0].hcaBuffer read_DRAM_buffer_bw 327680Mbps
attr unit Mbps
par Fattreenew.cn[9].hca[0].hcaBuffer write_DRAM_buffer_bw 262144Mbps
attr unit Mbps
par Fattreenew.cn[9].hca[0].hcaBuffer SRAM_buffer 2MB
attr unit MB
par Fattreenew.cn[9].hca[0].hcaBuffer read_SRAM_buffer_bw 1.5e+06Mbps
attr unit Mbps
par Fattreenew.cn[9].hca[0].hcaBuffer write_SRAM_buffer_bw 1e+06Mbps
attr unit Mbps
par Fattreenew.cn[9].hca[0].hcaBuffer switch_buffer 16MB
attr unit MB
par Fattreenew.cn[9].hca[0].hcaBuffer read_switch_bw 409600Mbps
attr unit Mbps
par Fattreenew.cn[9].hca[0].hcaBuffer write_switch_bw 204800Mbps
attr unit Mbps
statistic Fattreenew.cn[9].hca[0].hcaBuffer queueLength:stats
field count 0
field mean -nan
field stddev -nan
field min -nan
field max -nan
field sum 0
field sqrsum 0
attr recordingmode stats
attr title "Queue length"
par Fattreenew.cn[9].hca[0].hca_payload typename "\"fattreenew.Payload\""
par Fattreenew.cn[9].hca[0].hca_payload rng 0
par Fattreenew.cn[9].hca[0].hca_payload prob_cn 0.5
par Fattreenew.cn[9].hca[0] typename "\"fattreenew.HCA\""
par Fattreenew.cn[9].hca[1].hcaBuffer typename "\"fattreenew.simulations.sramBuffer\""
par Fattreenew.cn[9].hca[1].hcaBuffer rng 0
par Fattreenew.cn[9].hca[1].hcaBuffer flash_buffer 128MB
attr unit MB
par Fattreenew.cn[9].hca[1].hcaBuffer read_storage_flash_bw 40960Mbps
attr unit Mbps
par Fattreenew.cn[9].hca[1].hcaBuffer write_storage_flash_bw 20480Mbps
attr unit Mbps
par Fattreenew.cn[9].hca[1].hcaBuffer DRAM_buffer 2048MB
attr unit MB
par Fattreenew.cn[9].hca[1].hcaBuffer read_DRAM_buffer_bw 327680Mbps
attr unit Mbps
par Fattreenew.cn[9].hca[1].hcaBuffer write_DRAM_buffer_bw 262144Mbps
attr unit Mbps
par Fattreenew.cn[9].hca[1].hcaBuffer SRAM_buffer 2MB
attr unit MB
par Fattreenew.cn[9].hca[1].hcaBuffer read_SRAM_buffer_bw 1.5e+06Mbps
attr unit Mbps
par Fattreenew.cn[9].hca[1].hcaBuffer write_SRAM_buffer_bw 1e+06Mbps
attr unit Mbps
par Fattreenew.cn[9].hca[1].hcaBuffer switch_buffer 16MB
attr unit MB
par Fattreenew.cn[9].hca[1].hcaBuffer read_switch_bw 409600Mbps
attr unit Mbps
par Fattreenew.cn[9].hca[1].hcaBuffer write_switch_bw 204800Mbps
attr unit Mbps
statistic Fattreenew.cn[9].hca[1].hcaBuffer queueLength:stats
field count 0
field mean -nan
field stddev -nan
field min -nan
field max -nan
field sum 0
field sqrsum 0
attr recordingmode stats
attr title "Queue length"
par Fattreenew.cn[9].hca[1].hca_payload typename "\"fattreenew.Payload\""
par Fattreenew.cn[9].hca[1].hca_payload rng 0
par Fattreenew.cn[9].hca[1].hca_payload prob_cn 0.5
par Fattreenew.cn[9].hca[1] typename "\"fattreenew.HCA\""
par Fattreenew.cn[9].hca[2].hcaBuffer typename "\"fattreenew.simulations.sramBuffer\""
par Fattreenew.cn[9].hca[2].hcaBuffer rng 0
par Fattreenew.cn[9].hca[2].hcaBuffer flash_buffer 128MB
attr unit MB
par Fattreenew.cn[9].hca[2].hcaBuffer read_storage_flash_bw 40960Mbps
attr unit Mbps
par Fattreenew.cn[9].hca[2].hcaBuffer write_storage_flash_bw 20480Mbps
attr unit Mbps
par Fattreenew.cn[9].hca[2].hcaBuffer DRAM_buffer 2048MB
attr unit MB
par Fattreenew.cn[9].hca[2].hcaBuffer read_DRAM_buffer_bw 327680Mbps
attr unit Mbps
par Fattreenew.cn[9].hca[2].hcaBuffer write_DRAM_buffer_bw 262144Mbps
attr unit Mbps
par Fattreenew.cn[9].hca[2].hcaBuffer SRAM_buffer 2MB
attr unit MB
par Fattreenew.cn[9].hca[2].hcaBuffer read_SRAM_buffer_bw 1.5e+06Mbps
attr unit Mbps
par Fattreenew.cn[9].hca[2].hcaBuffer write_SRAM_buffer_bw 1e+06Mbps
attr unit Mbps
par Fattreenew.cn[9].hca[2].hcaBuffer switch_buffer 16MB
attr unit MB
par Fattreenew.cn[9].hca[2].hcaBuffer read_switch_bw 409600Mbps
attr unit Mbps
par Fattreenew.cn[9].hca[2].hcaBuffer write_switch_bw 204800Mbps
attr unit Mbps
statistic Fattreenew.cn[9].hca[2].hcaBuffer queueLength:stats
field count 0
field mean -nan
field stddev -nan
field min -nan
field max -nan
field sum 0
field sqrsum 0
attr recordingmode stats
attr title "Queue length"
par Fattreenew.cn[9].hca[2].hca_payload typename "\"fattreenew.Payload\""
par Fattreenew.cn[9].hca[2].hca_payload rng 0
par Fattreenew.cn[9].hca[2].hca_payload prob_cn 0.5
par Fattreenew.cn[9].hca[2] typename "\"fattreenew.HCA\""
par Fattreenew.cn[9].hca[3].hcaBuffer typename "\"fattreenew.simulations.sramBuffer\""
par Fattreenew.cn[9].hca[3].hcaBuffer rng 0
par Fattreenew.cn[9].hca[3].hcaBuffer flash_buffer 128MB
attr unit MB
par Fattreenew.cn[9].hca[3].hcaBuffer read_storage_flash_bw 40960Mbps
attr unit Mbps
par Fattreenew.cn[9].hca[3].hcaBuffer write_storage_flash_bw 20480Mbps
attr unit Mbps
par Fattreenew.cn[9].hca[3].hcaBuffer DRAM_buffer 2048MB
attr unit MB
par Fattreenew.cn[9].hca[3].hcaBuffer read_DRAM_buffer_bw 327680Mbps
attr unit Mbps
par Fattreenew.cn[9].hca[3].hcaBuffer write_DRAM_buffer_bw 262144Mbps
attr unit Mbps
par Fattreenew.cn[9].hca[3].hcaBuffer SRAM_buffer 2MB
attr unit MB
par Fattreenew.cn[9].hca[3].hcaBuffer read_SRAM_buffer_bw 1.5e+06Mbps
attr unit Mbps
par Fattreenew.cn[9].hca[3].hcaBuffer write_SRAM_buffer_bw 1e+06Mbps
attr unit Mbps
par Fattreenew.cn[9].hca[3].hcaBuffer switch_buffer 16MB
attr unit MB
par Fattreenew.cn[9].hca[3].hcaBuffer read_switch_bw 409600Mbps
attr unit Mbps
par Fattreenew.cn[9].hca[3].hcaBuffer write_switch_bw 204800Mbps
attr unit Mbps
statistic Fattreenew.cn[9].hca[3].hcaBuffer queueLength:stats
field count 0
field mean -nan
field stddev -nan
field min -nan
field max -nan
field sum 0
field sqrsum 0
attr recordingmode stats
attr title "Queue length"
par Fattreenew.cn[9].hca[3].hca_payload typename "\"fattreenew.Payload\""
par Fattreenew.cn[9].hca[3].hca_payload rng 0
par Fattreenew.cn[9].hca[3].hca_payload prob_cn 0.5
[...]
attr unit Mbps
statistic Fattreenew.oss[7].ost[9].flashBuffer[1] queueLength:stats
field count 26
field mean 0
field stddev 0
field min 0
field max 0
field sum 0
field sqrsum 0
attr recordingmode stats
attr title "Queue length"
par Fattreenew.oss[7].ost[9].flashBuffer[2] typename "\"fattreenew.flashBuffer\""
par Fattreenew.oss[7].ost[9].flashBuffer[2] rng 0
par Fattreenew.oss[7].ost[9].flashBuffer[2] flash_buffer 128MB
attr unit MB
par Fattreenew.oss[7].ost[9].flashBuffer[2] read_storage_flash_bw 40960Mbps
attr unit Mbps
par Fattreenew.oss[7].ost[9].flashBuffer[2] write_storage_flash_bw 20480Mbps
attr unit Mbps
par Fattreenew.oss[7].ost[9].flashBuffer[2] DRAM_buffer 2048MB
attr unit MB
par Fattreenew.oss[7].ost[9].flashBuffer[2] read_DRAM_buffer_bw 327680Mbps
attr unit Mbps
par Fattreenew.oss[7].ost[9].flashBuffer[2] write_DRAM_buffer_bw 262144Mbps
attr unit Mbps
par Fattreenew.oss[7].ost[9].flashBuffer[2] SRAM_buffer 2MB
attr unit MB
par Fattreenew.oss[7].ost[9].flashBuffer[2] read_SRAM_buffer_bw 1.5e+06Mbps
attr unit Mbps
par Fattreenew.oss[7].ost[9].flashBuffer[2] write_SRAM_buffer_bw 1e+06Mbps
attr unit Mbps
par Fattreenew.oss[7].ost[9].flashBuffer[2] switch_buffer 16MB
attr unit MB
par Fattreenew.oss[7].ost[9].flashBuffer[2] read_switch_bw 409600Mbps
attr unit Mbps
par Fattreenew.oss[7].ost[9].flashBuffer[2] write_switch_bw 204800Mbps
attr unit Mbps
statistic Fattreenew.oss[7].ost[9].flashBuffer[2] queueLength:stats
field count 28
field mean 0
field stddev 0
field min 0
field max 0
field sum 0
field sqrsum 0
attr recordingmode stats
attr title "Queue length"
par Fattreenew.oss[7].ost[9].flashBuffer[3] typename "\"fattreenew.flashBuffer\""
par Fattreenew.oss[7].ost[9].flashBuffer[3] rng 0
par Fattreenew.oss[7].ost[9].flashBuffer[3] flash_buffer 128MB
attr unit MB
par Fattreenew.oss[7].ost[9].flashBuffer[3] read_storage_flash_bw 40960Mbps
attr unit Mbps
par Fattreenew.oss[7].ost[9].flashBuffer[3] write_storage_flash_bw 20480Mbps
attr unit Mbps
par Fattreenew.oss[7].ost[9].flashBuffer[3] DRAM_buffer 2048MB
attr unit MB
par Fattreenew.oss[7].ost[9].flashBuffer[3] read_DRAM_buffer_bw 327680Mbps
attr unit Mbps
par Fattreenew.oss[7].ost[9].flashBuffer[3] write_DRAM_buffer_bw 262144Mbps
attr unit Mbps
par Fattreenew.oss[7].ost[9].flashBuffer[3] SRAM_buffer 2MB
attr unit MB
par Fattreenew.oss[7].ost[9].flashBuffer[3] read_SRAM_buffer_bw 1.5e+06Mbps
attr unit Mbps
par Fattreenew.oss[7].ost[9].flashBuffer[3] write_SRAM_buffer_bw 1e+06Mbps
attr unit Mbps
par Fattreenew.oss[7].ost[9].flashBuffer[3] switch_buffer 16MB
attr unit MB
par Fattreenew.oss[7].ost[9].flashBuffer[3] read_switch_bw 409600Mbps
attr unit Mbps
par Fattreenew.oss[7].ost[9].flashBuffer[3] write_switch_bw 204800Mbps
attr unit Mbps
statistic Fattreenew.oss[7].ost[9].flashBuffer[3] queueLength:stats
field count 15
field mean 0
field stddev 0
field min 0
field max 0
field sum 0
field sqrsum 0
attr recordingmode stats
attr title "Queue length"
par Fattreenew.oss[7].ost[9].flashBuffer[4] typename "\"fattreenew.flashBuffer\""
par Fattreenew.oss[7].ost[9].flashBuffer[4] rng 0
par Fattreenew.oss[7].ost[9].flashBuffer[4] flash_buffer 128MB
attr unit MB
par Fattreenew.oss[7].ost[9].flashBuffer[4] read_storage_flash_bw 40960Mbps
attr unit Mbps
par Fattreenew.oss[7].ost[9].flashBuffer[4] write_storage_flash_bw 20480Mbps
attr unit Mbps
par Fattreenew.oss[7].ost[9].flashBuffer[4] DRAM_buffer 2048MB
attr unit MB
par Fattreenew.oss[7].ost[9].flashBuffer[4] read_DRAM_buffer_bw 327680Mbps
attr unit Mbps
par Fattreenew.oss[7].ost[9].flashBuffer[4] write_DRAM_buffer_bw 262144Mbps
attr unit Mbps
par Fattreenew.oss[7].ost[9].flashBuffer[4] SRAM_buffer 2MB
attr unit MB
par Fattreenew.oss[7].ost[9].flashBuffer[4] read_SRAM_buffer_bw 1.5e+06Mbps
attr unit Mbps
par Fattreenew.oss[7].ost[9].flashBuffer[4] write_SRAM_buffer_bw 1e+06Mbps
attr unit Mbps
par Fattreenew.oss[7].ost[9].flashBuffer[4] switch_buffer 16MB
attr unit MB
par Fattreenew.oss[7].ost[9].flashBuffer[4] read_switch_bw 409600Mbps
attr unit Mbps
par Fattreenew.oss[7].ost[9].flashBuffer[4] write_switch_bw 204800Mbps
attr unit Mbps
statistic Fattreenew.oss[7].ost[9].flashBuffer[4] queueLength:stats
field count 22
field mean 0
field stddev 0
field min 0
field max 0
field sum 0
field sqrsum 0
attr recordingmode stats
attr title "Queue length"
par Fattreenew.oss[7].ost[9].flashBuffer[5] typename "\"fattreenew.flashBuffer\""
par Fattreenew.oss[7].ost[9].flashBuffer[5] rng 0
par Fattreenew.oss[7].ost[9].flashBuffer[5] flash_buffer 128MB
attr unit MB
par Fattreenew.oss[7].ost[9].flashBuffer[5] read_storage_flash_bw 40960Mbps
attr unit Mbps
par Fattreenew.oss[7].ost[9].flashBuffer[5] write_storage_flash_bw 20480Mbps
attr unit Mbps
par Fattreenew.oss[7].ost[9].flashBuffer[5] DRAM_buffer 2048MB
attr unit MB
par Fattreenew.oss[7].ost[9].flashBuffer[5] read_DRAM_buffer_bw 327680Mbps
attr unit Mbps
par Fattreenew.oss[7].ost[9].flashBuffer[5] write_DRAM_buffer_bw 262144Mbps
attr unit Mbps
par Fattreenew.oss[7].ost[9].flashBuffer[5] SRAM_buffer 2MB
attr unit MB
par Fattreenew.oss[7].ost[9].flashBuffer[5] read_SRAM_buffer_bw 1.5e+06Mbps
attr unit Mbps
par Fattreenew.oss[7].ost[9].flashBuffer[5] write_SRAM_buffer_bw 1e+06Mbps
attr unit Mbps
par Fattreenew.oss[7].ost[9].flashBuffer[5] switch_buffer 16MB
attr unit MB
par Fattreenew.oss[7].ost[9].flashBuffer[5] read_switch_bw 409600Mbps
attr unit Mbps
par Fattreenew.oss[7].ost[9].flashBuffer[5] write_switch_bw 204800Mbps
attr unit Mbps
statistic Fattreenew.oss[7].ost[9].flashBuffer[5] queueLength:stats
field count 27
field mean 0
field stddev 0
field min 0
field max 0
field sum 0
field sqrsum 0
attr recordingmode stats
attr title "Queue length"
par Fattreenew.oss[7].ost[9].flashBuffer[6] typename "\"fattreenew.flashBuffer\""
par Fattreenew.oss[7].ost[9].flashBuffer[6] rng 0
par Fattreenew.oss[7].ost[9].flashBuffer[6] flash_buffer 128MB
attr unit MB
par Fattreenew.oss[7].ost[9].flashBuffer[6] read_storage_flash_bw 40960Mbps
attr unit Mbps
par Fattreenew.oss[7].ost[9].flashBuffer[6] write_storage_flash_bw 20480Mbps
attr unit Mbps
par Fattreenew.oss[7].ost[9].flashBuffer[6] DRAM_buffer 2048MB
attr unit MB
par Fattreenew.oss[7].ost[9].flashBuffer[6] read_DRAM_buffer_bw 327680Mbps
attr unit Mbps
par Fattreenew.oss[7].ost[9].flashBuffer[6] write_DRAM_buffer_bw 262144Mbps
attr unit Mbps
par Fattreenew.oss[7].ost[9].flashBuffer[6] SRAM_buffer 2MB
attr unit MB
par Fattreenew.oss[7].ost[9].flashBuffer[6] read_SRAM_buffer_bw 1.5e+06Mbps
attr unit Mbps
par Fattreenew.oss[7].ost[9].flashBuffer[6] write_SRAM_buffer_bw 1e+06Mbps
attr unit Mbps
par Fattreenew.oss[7].ost[9].flashBuffer[6] switch_buffer 16MB
attr unit MB
par Fattreenew.oss[7].ost[9].flashBuffer[6] read_switch_bw 409600Mbps
attr unit Mbps
par Fattreenew.oss[7].ost[9].flashBuffer[6] write_switch_bw 204800Mbps
attr unit Mbps
statistic Fattreenew.oss[7].ost[9].flashBuffer[6] queueLength:stats
field count 23
field mean 0
field stddev 0
field min 0
field max 0
field sum 0
field sqrsum 0
attr recordingmode stats
attr title "Queue length"
par Fattreenew.oss[7].ost[9].flashBuffer[7] typename "\"fattreenew.flashBuffer\""
par Fattreenew.oss[7].ost[9].flashBuffer[7] rng 0
par Fattreenew.oss[7].ost[9].flashBuffer[7] flash_buffer 128MB
attr unit MB
par Fattreenew.oss[7].ost[9].flashBuffer[7] read_storage_flash_bw 40960Mbps
attr unit Mbps
par Fattreenew.oss[7].ost[9].flashBuffer[7] write_storage_flash_bw 20480Mbps
attr unit Mbps
par Fattreenew.oss[7].ost[9].flashBuffer[7] DRAM_buffer 2048MB
attr unit MB
par Fattreenew.oss[7].ost[9].flashBuffer[7] read_DRAM_buffer_bw 327680Mbps
attr unit Mbps
par Fattreenew.oss[7].ost[9].flashBuffer[7] write_DRAM_buffer_bw 262144Mbps
attr unit Mbps
par Fattreenew.oss[7].ost[9].flashBuffer[7] SRAM_buffer 2MB
attr unit MB
par Fattreenew.oss[7].ost[9].flashBuffer[7] read_SRAM_buffer_bw 1.5e+06Mbps
attr unit Mbps
par Fattreenew.oss[7].ost[9].flashBuffer[7] write_SRAM_buffer_bw 1e+06Mbps
attr unit Mbps
par Fattreenew.oss[7].ost[9].flashBuffer[7] switch_buffer 16MB
attr unit MB
par Fattreenew.oss[7].ost[9].flashBuffer[7] read_switch_bw 409600Mbps
attr unit Mbps
par Fattreenew.oss[7].ost[9].flashBuffer[7] write_switch_bw 204800Mbps
attr unit Mbps
statistic Fattreenew.oss[7].ost[9].flashBuffer[7] queueLength:stats
field count 11
field mean 0
field stddev 0
field min 0
field max 0
field sum 0
field sqrsum 0
attr recordingmode stats
attr title "Queue length"
par Fattreenew.oss[7].ost[9].flashBuffer[8] typename "\"fattreenew.flashBuffer\""
par Fattreenew.oss[7].ost[9].flashBuffer[8] rng 0
par Fattreenew.oss[7].ost[9].flashBuffer[8] flash_buffer 128MB
attr unit MB
par Fattreenew.oss[7].ost[9].flashBuffer[8] read_storage_flash_bw 40960Mbps
attr unit Mbps
par Fattreenew.oss[7].ost[9].flashBuffer[8] write_storage_flash_bw 20480Mbps
attr unit Mbps
par Fattreenew.oss[7].ost[9].flashBuffer[8] DRAM_buffer 2048MB
attr unit MB
par Fattreenew.oss[7].ost[9].flashBuffer[8] read_DRAM_buffer_bw 327680Mbps
attr unit Mbps
par Fattreenew.oss[7].ost[9].flashBuffer[8] write_DRAM_buffer_bw 262144Mbps
attr unit Mbps
par Fattreenew.oss[7].ost[9].flashBuffer[8] SRAM_buffer 2MB
attr unit MB
par Fattreenew.oss[7].ost[9].flashBuffer[8] read_SRAM_buffer_bw 1.5e+06Mbps
attr unit Mbps
par Fattreenew.oss[7].ost[9].flashBuffer[8] write_SRAM_buffer_bw 1e+06Mbps
attr unit Mbps
par Fattreenew.oss[7].ost[9].flashBuffer[8] switch_buffer 16MB
attr unit MB
par Fattreenew.oss[7].ost[9].flashBuffer[8] read_switch_bw 409600Mbps
attr unit Mbps
par Fattreenew.oss[7].ost[9].flashBuffer[8] write_switch_bw 204800Mbps
attr unit Mbps
statistic Fattreenew.oss[7].ost[9].flashBuffer[8] queueLength:stats
field count 20
field mean 0
field stddev 0
field min 0
field max 0
field sum 0
field sqrsum 0
attr recordingmode stats
attr title "Queue length"
par Fattreenew.oss[7].ost[9].flashBuffer[9] typename "\"fattreenew.flashBuffer\""
par Fattreenew.oss[7].ost[9].flashBuffer[9] rng 0
par Fattreenew.oss[7].ost[9].flashBuffer[9] flash_buffer 128MB
attr unit MB
par Fattreenew.oss[7].ost[9].flashBuffer[9] read_storage_flash_bw 40960Mbps
attr unit Mbps
par Fattreenew.oss[7].ost[9].flashBuffer[9] write_storage_flash_bw 20480Mbps
attr unit Mbps
par Fattreenew.oss[7].ost[9].flashBuffer[9] DRAM_buffer 2048MB
attr unit MB
par Fattreenew.oss[7].ost[9].flashBuffer[9] read_DRAM_buffer_bw 327680Mbps
attr unit Mbps
par Fattreenew.oss[7].ost[9].flashBuffer[9] write_DRAM_buffer_bw 262144Mbps
attr unit Mbps
par Fattreenew.oss[7].ost[9].flashBuffer[9] SRAM_buffer 2MB
attr unit MB
par Fattreenew.oss[7].ost[9].flashBuffer[9] read_SRAM_buffer_bw 1.5e+06Mbps
attr unit Mbps
par Fattreenew.oss[7].ost[9].flashBuffer[9] write_SRAM_buffer_bw 1e+06Mbps
attr unit Mbps
par Fattreenew.oss[7].ost[9].flashBuffer[9] switch_buffer 16MB
attr unit MB
par Fattreenew.oss[7].ost[9].flashBuffer[9] read_switch_bw 409600Mbps
attr unit Mbps
par Fattreenew.oss[7].ost[9].flashBuffer[9] write_switch_bw 204800Mbps
attr unit Mbps
statistic Fattreenew.oss[7].ost[9].flashBuffer[9] queueLength:stats
field count 22
field mean 0
field stddev 0
field min 0
field max 0
field sum 0
field sqrsum 0
attr recordingmode stats
attr title "Queue length"
par Fattreenew.oss[7].ost[9].payloadOST typename "\"fattreenew.Payload\""
par Fattreenew.oss[7].ost[9].payloadOST rng 0
par Fattreenew.oss[7].ost[9].payloadOST prob_cn 0.5
par Fattreenew.oss[7].ost[9] typename "\"fattreenew.OST\""
par Fattreenew.oss[7].ost[9] num_devs 10
par Fattreenew.oss[7].hca[0].hcaBuffer typename "\"fattreenew.simulations.sramBuffer\""
par Fattreenew.oss[7].hca[0].hcaBuffer rng 0
par Fattreenew.oss[7].hca[0].hcaBuffer flash_buffer 128MB
attr unit MB
par Fattreenew.oss[7].hca[0].hcaBuffer read_storage_flash_bw 40960Mbps
attr unit Mbps
par Fattreenew.oss[7].hca[0].hcaBuffer write_storage_flash_bw 20480Mbps
attr unit Mbps
par Fattreenew.oss[7].hca[0].hcaBuffer DRAM_buffer 2048MB
attr unit MB
par Fattreenew.oss[7].hca[0].hcaBuffer read_DRAM_buffer_bw 327680Mbps
attr unit Mbps
par Fattreenew.oss[7].hca[0].hcaBuffer write_DRAM_buffer_bw 262144Mbps
attr unit Mbps
par Fattreenew.oss[7].hca[0].hcaBuffer SRAM_buffer 2MB
attr unit MB
par Fattreenew.oss[7].hca[0].hcaBuffer read_SRAM_buffer_bw 1.5e+06Mbps
attr unit Mbps
par Fattreenew.oss[7].hca[0].hcaBuffer write_SRAM_buffer_bw 1e+06Mbps
attr unit Mbps
par Fattreenew.oss[7].hca[0].hcaBuffer switch_buffer 16MB
attr unit MB
par Fattreenew.oss[7].hca[0].hcaBuffer read_switch_bw 409600Mbps
attr unit Mbps
par Fattreenew.oss[7].hca[0].hcaBuffer write_switch_bw 204800Mbps
attr unit Mbps
statistic Fattreenew.oss[7].hca[0].hcaBuffer queueLength:stats
field count 0
field mean -nan
field stddev -nan
field min -nan
field max -nan
field sum 0
field sqrsum 0
attr recordingmode stats
attr title "Queue length"
par Fattreenew.oss[7].hca[0].hca_payload typename "\"fattreenew.Payload\""
par Fattreenew.oss[7].hca[0].hca_payload rng 0
par Fattreenew.oss[7].hca[0].hca_payload prob_cn 0.5
par Fattreenew.oss[7].hca[0] typename "\"fattreenew.HCA\""
par Fattreenew.oss[7].hca[1].hcaBuffer typename "\"fattreenew.simulations.sramBuffer\""
par Fattreenew.oss[7].hca[1].hcaBuffer rng 0
par Fattreenew.oss[7].hca[1].hcaBuffer flash_buffer 128MB
attr unit MB
par Fattreenew.oss[7].hca[1].hcaBuffer read_storage_flash_bw 40960Mbps
attr unit Mbps
par Fattreenew.oss[7].hca[1].hcaBuffer write_storage_flash_bw 20480Mbps
attr unit Mbps
par Fattreenew.oss[7].hca[1].hcaBuffer DRAM_buffer 2048MB
attr unit MB
par Fattreenew.oss[7].hca[1].hcaBuffer read_DRAM_buffer_bw 327680Mbps
attr unit Mbps
par Fattreenew.oss[7].hca[1].hcaBuffer write_DRAM_buffer_bw 262144Mbps
attr unit Mbps
par Fattreenew.oss[7].hca[1].hcaBuffer SRAM_buffer 2MB
attr unit MB
par Fattreenew.oss[7].hca[1].hcaBuffer read_SRAM_buffer_bw 1.5e+06Mbps
attr unit Mbps
par Fattreenew.oss[7].hca[1].hcaBuffer write_SRAM_buffer_bw 1e+06Mbps
attr unit Mbps
par Fattreenew.oss[7].hca[1].hcaBuffer switch_buffer 16MB
attr unit MB
par Fattreenew.oss[7].hca[1].hcaBuffer read_switch_bw 409600Mbps
attr unit Mbps
par Fattreenew.oss[7].hca[1].hcaBuffer write_switch_bw 204800Mbps
attr unit Mbps
statistic Fattreenew.oss[7].hca[1].hcaBuffer queueLength:stats
field count 0
field mean -nan
field stddev -nan
field min -nan
field max -nan
field sum 0
field sqrsum 0
attr recordingmode stats
attr title "Queue length"
par Fattreenew.oss[7].hca[1].hca_payload typename "\"fattreenew.Payload\""
par Fattreenew.oss[7].hca[1].hca_payload rng 0
par Fattreenew.oss[7].hca[1].hca_payload prob_cn 0.5
par Fattreenew.oss[7].hca[1] typename "\"fattreenew.HCA\""
par Fattreenew.oss[7].hba[0].hbaBuffer typename "\"fattreenew.simulations.sramBuffer\""
par Fattreenew.oss[7].hba[0].hbaBuffer rng 0
par Fattreenew.oss[7].hba[0].hbaBuffer flash_buffer 128MB
attr unit MB
par Fattreenew.oss[7].hba[0].hbaBuffer read_storage_flash_bw 40960Mbps
attr unit Mbps
par Fattreenew.oss[7].hba[0].hbaBuffer write_storage_flash_bw 20480Mbps
attr unit Mbps
par Fattreenew.oss[7].hba[0].hbaBuffer DRAM_buffer 2048MB
attr unit MB
par Fattreenew.oss[7].hba[0].hbaBuffer read_DRAM_buffer_bw 327680Mbps
attr unit Mbps
par Fattreenew.oss[7].hba[0].hbaBuffer write_DRAM_buffer_bw 262144Mbps
attr unit Mbps
par Fattreenew.oss[7].hba[0].hbaBuffer SRAM_buffer 2MB
attr unit MB
par Fattreenew.oss[7].hba[0].hbaBuffer read_SRAM_buffer_bw 1.5e+06Mbps
attr unit Mbps
par Fattreenew.oss[7].hba[0].hbaBuffer write_SRAM_buffer_bw 1e+06Mbps
attr unit Mbps
par Fattreenew.oss[7].hba[0].hbaBuffer switch_buffer 16MB
attr unit MB
par Fattreenew.oss[7].hba[0].hbaBuffer read_switch_bw 409600Mbps
attr unit Mbps
par Fattreenew.oss[7].hba[0].hbaBuffer write_switch_bw 204800Mbps
attr unit Mbps
statistic Fattreenew.oss[7].hba[0].hbaBuffer queueLength:stats
field count 0
field mean -nan
field stddev -nan
field min -nan
field max -nan
field sum 0
field sqrsum 0
attr recordingmode stats
attr title "Queue length"
par Fattreenew.oss[7].hba[0].hba_payload typename "\"fattreenew.Payload\""
par Fattreenew.oss[7].hba[0].hba_payload rng 0
par Fattreenew.oss[7].hba[0].hba_payload prob_cn 0.5
par Fattreenew.oss[7].hba[0] typename "\"fattreenew.HBA\""
par Fattreenew.oss[7].hba[1].hbaBuffer typename "\"fattreenew.simulations.sramBuffer\""
par Fattreenew.oss[7].hba[1].hbaBuffer rng 0
par Fattreenew.oss[7].hba[1].hbaBuffer flash_buffer 128MB
attr unit MB
par Fattreenew.oss[7].hba[1].hbaBuffer read_storage_flash_bw 40960Mbps
attr unit Mbps
par Fattreenew.oss[7].hba[1].hbaBuffer write_storage_flash_bw 20480Mbps
attr unit Mbps
par Fattreenew.oss[7].hba[1].hbaBuffer DRAM_buffer 2048MB
attr unit MB
par Fattreenew.oss[7].hba[1].hbaBuffer read_DRAM_buffer_bw 327680Mbps
attr unit Mbps
par Fattreenew.oss[7].hba[1].hbaBuffer write_DRAM_buffer_bw 262144Mbps
attr unit Mbps
par Fattreenew.oss[7].hba[1].hbaBuffer SRAM_buffer 2MB
attr unit MB
par Fattreenew.oss[7].hba[1].hbaBuffer read_SRAM_buffer_bw 1.5e+06Mbps
attr unit Mbps
par Fattreenew.oss[7].hba[1].hbaBuffer write_SRAM_buffer_bw 1e+06Mbps
attr unit Mbps
par Fattreenew.oss[7].hba[1].hbaBuffer switch_buffer 16MB
attr unit MB
par Fattreenew.oss[7].hba[1].hbaBuffer read_switch_bw 409600Mbps
attr unit Mbps
par Fattreenew.oss[7].hba[1].hbaBuffer write_switch_bw 204800Mbps
attr unit Mbps
statistic Fattreenew.oss[7].hba[1].hbaBuffer queueLength:stats
field count 0
field mean -nan
field stddev -nan
field min -nan
field max -nan
field sum 0
field sqrsum 0
attr recordingmode stats
attr title "Queue length"
par Fattreenew.oss[7].hba[1].hba_payload typename "\"fattreenew.Payload\""
par Fattreenew.oss[7].hba[1].hba_payload rng 0
par Fattreenew.oss[7].hba[1].hba_payload prob_cn 0.5
par Fattreenew.oss[7].hba[1] typename "\"fattreenew.HBA\""
par Fattreenew.oss[7].oss_in_payload typename "\"fattreenew.Payload\""
par Fattreenew.oss[7].oss_in_payload rng 0
par Fattreenew.oss[7].oss_in_payload prob_cn 0.5
par Fattreenew.oss[7].oss_out_payload typename "\"fattreenew.Payload\""
par Fattreenew.oss[7].oss_out_payload rng 0
par Fattreenew.oss[7].oss_out_payload prob_cn 0.5
par Fattreenew.oss[7].oss_hub_mem_hca typename "\"fattreenew.Payload\""
par Fattreenew.oss[7].oss_hub_mem_hca rng 0
par Fattreenew.oss[7].oss_hub_mem_hca prob_cn 0.5
par Fattreenew.oss[7].oss_hub_mem_hba typename "\"fattreenew.Payload\""
par Fattreenew.oss[7].oss_hub_mem_hba rng 0
par Fattreenew.oss[7].oss_hub_mem_hba prob_cn 0.5
par Fattreenew.oss[7].oss_hub_hba_ost typename "\"fattreenew.Payload\""
par Fattreenew.oss[7].oss_hub_hba_ost rng 0
par Fattreenew.oss[7].oss_hub_hba_ost prob_cn 0.5
par Fattreenew.oss[7] typename "\"fattreenew.OSS\""
par Fattreenew.oss[7] num_hcas 2
par Fattreenew.oss[7] num_hbas 2
par Fattreenew.oss[7] num_osts 10
par Fattreenew.edge_connect[0] typename "\"fattreenew.Payload\""
par Fattreenew.edge_connect[0] rng 0
par Fattreenew.edge_connect[0] prob_cn 0.5
par Fattreenew.edge_connect[1] typename "\"fattreenew.Payload\""
par Fattreenew.edge_connect[1] rng 0
par Fattreenew.edge_connect[1] prob_cn 0.5
par Fattreenew.edge_connect[2] typename "\"fattreenew.Payload\""
par Fattreenew.edge_connect[2] rng 0
par Fattreenew.edge_connect[2] prob_cn 0.5
par Fattreenew.edge_connect[3] typename "\"fattreenew.Payload\""
par Fattreenew.edge_connect[3] rng 0
par Fattreenew.edge_connect[3] prob_cn 0.5
par Fattreenew.edge_connect[4] typename "\"fattreenew.Payload\""
par Fattreenew.edge_connect[4] rng 0
par Fattreenew.edge_connect[4] prob_cn 0.5
par Fattreenew.edge_connect[5] typename "\"fattreenew.Payload\""
par Fattreenew.edge_connect[5] rng 0
par Fattreenew.edge_connect[5] prob_cn 0.5
par Fattreenew.edge_connect[6] typename "\"fattreenew.Payload\""
par Fattreenew.edge_connect[6] rng 0
par Fattreenew.edge_connect[6] prob_cn 0.5
par Fattreenew.edge_connect[7] typename "\"fattreenew.Payload\""
par Fattreenew.edge_connect[7] rng 0
par Fattreenew.edge_connect[7] prob_cn 0.5
par Fattreenew typename "\"fattreenew.simulations.Fattreenew\""
par Fattreenew core_port 16
par Fattreenew edge_aggr_port 8
par Fattreenew num_core 2
par Fattreenew num_aggr 8
par Fattreenew num_edge 8
par Fattreenew num_oss 8
par Fattreenew num_cn 24

